
     RDKit          3D

  0  0  0  0  0  0  0  0  0  0999 V3000
M  V30 BEGIN CTAB
M  V30 COUNTS 57 60 0 0 0
M  V30 BEGIN ATOM
M  V30 1 C -0.724268 -3.25 2.10964 0
M  V30 2 C -1.19037 -2.69587 0.743426 0 CFG=2
M  V30 3 C -0.872134 -1.16641 0.621424 0 CFG=1
M  V30 4 C 0.592485 -0.756719 0.968254 0 CFG=1
M  V30 5 C 0.948481 0.650467 0.399361 0 CFG=1
M  V30 6 C 2.33508 1.18127 0.953927 0 CFG=1
M  V30 7 C 3.46645 1.0871 -0.043396 0
M  V30 8 O 4.5584 1.66672 0.208433 0
M  V30 9 C 3.34808 0.241662 -1.24986 0
M  V30 10 C 2.12293 -0.082504 -1.70993 0
M  V30 11 C 0.897674 0.64184 -1.15834 0 CFG=1
M  V30 12 C -0.379778 -0.00452837 -1.65645 0
M  V30 13 O -0.594782 -0.0167907 -2.9008 0
M  V30 14 C -1.33436 -0.684162 -0.74061 0
M  V30 15 C -2.60463 -0.964823 -1.12239 0
M  V30 16 C -3.3888 -2.03501 -0.413725 0
M  V30 17 C -2.7156 -2.86334 0.538915 0
M  V30 18 C -3.46698 -3.81404 1.26793 0
M  V30 19 C -4.83942 -3.93198 1.09064 0
M  V30 20 C -5.49205 -3.14611 0.154121 0
M  V30 21 C -4.78642 -2.23478 -0.631969 0
M  V30 22 O -5.52485 -1.5751 -1.6166 0
M  V30 23 O -3.19725 -0.247522 -2.16306 0
M  V30 24 O 0.907903 1.97599 -1.60954 0
M  V30 25 O 1.95049 -1.05478 -2.70368 0
M  V30 26 C 4.58571 -0.245033 -1.89984 0
M  V30 27 O 5.52911 -0.687838 -1.19156 0
M  V30 28 N 4.74981 -0.166895 -3.31715 0
M  V30 29 N 2.28255 2.53877 1.56226 0
M  V30 30 C 1.8232 3.60841 0.662582 0
M  V30 31 C 1.54481 2.5646 2.83667 0
M  V30 32 O 0.708257 -0.715801 2.37288 0
M  V30 33 O -0.486732 -3.41866 -0.244443 0
M  V30 34 H -0.891384 -4.34397 2.17608 0
M  V30 35 H -1.23969 -2.73436 2.94823 0
M  V30 36 H 0.371718 -3.15298 2.22611 0
M  V30 37 H -1.51797 -0.634304 1.35954 0
M  V30 38 H 1.2931 -1.5088 0.532003 0
M  V30 39 H 0.139815 1.32849 0.744109 0
M  V30 40 H 2.69195 0.500021 1.75205 0
M  V30 41 H -3.01895 -4.47387 1.99225 0
M  V30 42 H -5.39938 -4.65406 1.6714 0
M  V30 43 H -6.55717 -3.27505 0.0061233 0
M  V30 44 H -5.15572 -1.31005 -2.51693 0
M  V30 45 H -2.85031 0.643133 -2.49686 0
M  V30 46 H 1.01251 1.97601 -2.59805 0
M  V30 47 H 2.69 -1.6707 -3.01664 0
M  V30 48 H 5.62195 -0.524802 -3.76592 0
M  V30 49 H 4.02493 0.287021 -3.91627 0
M  V30 50 H 2.39609 3.59258 -0.287727 0
M  V30 51 H 0.73533 3.53076 0.45431 0
M  V30 52 H 2.0139 4.59684 1.1323 0
M  V30 53 H 1.69961 3.5422 3.34134 0
M  V30 54 H 0.455081 2.41599 2.68498 0
M  V30 55 H 1.92647 1.78012 3.52446 0
M  V30 56 H 1.53 -1.21263 2.62531 0
M  V30 57 H -0.89564 -3.24471 -1.13161 0
M  V30 END ATOM
M  V30 BEGIN BOND
M  V30 1 1 1 2
M  V30 2 1 2 3
M  V30 3 1 3 4
M  V30 4 1 4 5
M  V30 5 1 5 6
M  V30 6 1 6 7
M  V30 7 2 7 8
M  V30 8 1 7 9
M  V30 9 2 9 10
M  V30 10 1 10 11
M  V30 11 1 11 12
M  V30 12 2 12 13
M  V30 13 1 12 14
M  V30 14 2 14 15
M  V30 15 1 15 16
M  V30 16 2 16 17
M  V30 17 1 17 18
M  V30 18 2 18 19
M  V30 19 1 19 20
M  V30 20 2 20 21
M  V30 21 1 21 22
M  V30 22 1 15 23
M  V30 23 1 11 24 CFG=3
M  V30 24 1 10 25
M  V30 25 1 9 26
M  V30 26 2 26 27
M  V30 27 1 26 28
M  V30 28 1 6 29
M  V30 29 1 29 30
M  V30 30 1 29 31
M  V30 31 1 4 32
M  V30 32 1 2 33 CFG=3
M  V30 33 1 17 2
M  V30 34 1 14 3
M  V30 35 1 11 5
M  V30 36 1 21 16
M  V30 37 1 1 34
M  V30 38 1 1 35
M  V30 39 1 1 36
M  V30 40 1 3 37 CFG=1
M  V30 41 1 4 38 CFG=3
M  V30 42 1 5 39 CFG=1
M  V30 43 1 6 40 CFG=1
M  V30 44 1 18 41
M  V30 45 1 19 42
M  V30 46 1 20 43
M  V30 47 1 22 44
M  V30 48 1 23 45
M  V30 49 1 24 46
M  V30 50 1 25 47
M  V30 51 1 28 48
M  V30 52 1 28 49
M  V30 53 1 30 50
M  V30 54 1 30 51
M  V30 55 1 30 52
M  V30 56 1 31 53
M  V30 57 1 31 54
M  V30 58 1 31 55
M  V30 59 1 32 56
M  V30 60 1 33 57
M  V30 END BOND
M  V30 END CTAB
M  END
$$$$
