AAT BioquestÂ®, Inc. 2025
Actelion Java MolfileCreator 1.0

 23 25  0  0  0  0  0  0  0  0999 V2000
    7.3833   -5.6132   -0.0000 O   0  0  0  0  0  0  0  0  0  0  0  0
    7.0743   -4.6622   -0.0000 C   0  0  0  0  0  0  0  0  0  0  0  0
    7.7434   -3.9190   -0.0000 C   0  0  0  0  0  0  0  0  0  0  0  0
    7.4344   -2.9680   -0.0000 C   0  0  0  0  0  0  0  0  0  0  0  0
    6.4562   -2.7601   -0.0000 C   0  0  0  0  0  0  0  0  0  0  0  0
    5.7871   -3.5032   -0.0000 C   0  0  0  0  0  0  0  0  0  0  0  0
    6.0961   -4.4543   -0.0000 C   0  0  0  0  0  0  0  0  0  0  0  0
    6.1472   -1.8090   -0.0000 C   0  0  0  0  0  0  0  0  0  0  0  0
    6.7350   -1.0000   -0.0000 C   0  0  0  0  0  0  0  0  0  0  0  0
    6.1472   -0.1910   -0.0000 O   0  0  0  0  0  0  0  0  0  0  0  0
    5.1962   -0.5000   -0.0000 C   0  0  0  0  0  0  0  0  0  0  0  0
    5.1962   -1.5000   -0.0000 C   0  0  0  0  0  0  0  0  0  0  0  0
    4.3301   -2.0000   -0.0000 C   0  0  0  0  0  0  0  0  0  0  0  0
    3.4641   -1.5000   -0.0000 C   0  0  0  0  0  0  0  0  0  0  0  0
    2.5981   -2.0000   -0.0000 O   0  0  0  0  0  0  0  0  0  0  0  0
    2.5981   -3.0000   -0.0000 C   0  0  0  0  0  0  0  0  0  0  0  0
    3.4641   -0.5000   -0.0000 C   0  0  0  0  0  0  0  0  0  0  0  0
    2.5981   -0.0000   -0.0000 O   0  0  0  0  0  0  0  0  0  0  0  0
    1.7321   -0.5000   -0.0000 C   0  0  0  0  0  0  0  0  0  0  0  0
    0.8660   -0.0000   -0.0000 C   0  0  0  0  0  0  0  0  0  0  0  0
    0.8660    1.0000   -0.0000 O   0  0  0  0  0  0  0  0  0  0  0  0
    0.0000   -0.5000   -0.0000 O   0  0  0  0  0  0  0  0  0  0  0  0
    4.3301   -0.0000   -0.0000 C   0  0  0  0  0  0  0  0  0  0  0  0
  1  2  1  0  0  0  0
  2  3  2  0  0  0  0
  3  4  1  0  0  0  0
  4  5  2  0  0  0  0
  5  6  1  0  0  0  0
  6  7  2  0  0  0  0
  2  7  1  0  0  0  0
  5  8  1  0  0  0  0
  8  9  2  0  0  0  0
  9 10  1  0  0  0  0
 10 11  1  0  0  0  0
 11 12  2  0  0  0  0
  8 12  1  0  0  0  0
 12 13  1  0  0  0  0
 13 14  2  0  0  0  0
 14 15  1  0  0  0  0
 15 16  1  0  0  0  0
 14 17  1  0  0  0  0
 17 18  1  0  0  0  0
 18 19  1  0  0  0  0
 19 20  1  0  0  0  0
 20 21  1  0  0  0  0
 20 22  2  0  0  0  0
 17 23  2  0  0  0  0
 11 23  1  0  0  0  0
M  END
