@<TRIPOS>MOLECULE
EPPS
36   36    1
SMALL
USER_CHARGES


@<TRIPOS>ATOM
      1 C1         -3.3304   -1.6855    2.5885 C.3       1 UNK         0.0986 
      2 C2         -3.7816   -3.1581    2.7915 C.3       1 UNK         0.1007 
      3 N3         -5.0393   -3.2223    3.5612 N.3       1 UNK        -0.7113 
      4 C4         -4.8232   -2.5458    4.8579 C.3       1 UNK         0.1007 
      5 C5         -4.3666   -1.0762    4.6445 C.3       1 UNK         0.0986 
      6 N6         -3.0951   -1.0268    3.8899 N.3       1 UNK        -0.7051 
      7 C7         -2.6445    0.3550    3.6775 C.3       1 UNK         0.1131 
      8 C8         -2.0712    1.0135    4.9537 C.3       1 UNK        -0.1197 
      9 C9         -0.7379    0.4300    5.5007 C.3       1 UNK        -0.2881 
     10 S10        -0.9313   -1.1972    6.4189 S.3       1 UNK         1.0110 
     11 O11        -2.1650   -1.1901    7.2118 O.2       1 UNK        -0.4915 
     12 O12         0.3502   -1.5814    7.0208 O.2       1 UNK        -0.4915 
     13 O13        -1.1730   -2.1683    5.1213 O.3       1 UNK        -0.5020 
     14 C14        -5.4565   -4.6300    3.7142 C.3       1 UNK         0.0871 
     15 C15        -6.8709   -4.8069    4.3125 C.3       1 UNK         0.1330 
     16 O16        -7.8267   -4.1895    3.4668 O.3       1 UNK        -0.6627 
     17 H17        -4.0779   -1.1461    2.0009 H         1 UNK         0.0691 
     18 H18        -2.4138   -1.6801    1.9948 H         1 UNK         0.0691 
     19 H19        -2.9876   -3.7247    3.2846 H         1 UNK         0.0706 
     20 H20        -3.9226   -3.6183    1.8113 H         1 UNK         0.0706 
     21 H21        -4.0872   -3.0795    5.4643 H         1 UNK         0.0706 
     22 H22        -5.7460   -2.5307    5.4390 H         1 UNK         0.0706 
     23 H23        -5.1516   -0.5162    4.1298 H         1 UNK         0.0691 
     24 H24        -4.2547   -0.6082    5.6231 H         1 UNK         0.0691 
     25 H25        -1.8487    0.3551    2.9283 H         1 UNK         0.0626 
     26 H26        -3.4456    0.9706    3.2598 H         1 UNK         0.0626 
     27 H27        -1.8818    2.0572    4.6966 H         1 UNK         0.0883 
     28 H28        -2.8252    1.0731    5.7394 H         1 UNK         0.0883 
     29 H29        -0.2872    1.1044    6.2255 H         1 UNK         0.1467 
     30 H30        -0.0053    0.2512    4.7169 H         1 UNK         0.1467 
     31 H31        -1.9518   -1.7722    4.6347 H         1 UNK         0.3980 
     32 H32        -4.7542   -5.1256    4.3893 H         1 UNK         0.0752 
     33 H33        -5.3743   -5.2217    2.7994 H         1 UNK         0.0752 
     34 H34        -7.1055   -5.8688    4.4022 H         1 UNK         0.0513 
     35 H35        -6.9330   -4.4008    5.3229 H         1 UNK         0.0513 
     36 H36        -7.4475   -3.3244    3.2387 H         1 UNK         0.4242 
@<TRIPOS>BOND
     1    1    2 1    
     2    1    6 1    
     3    1   17 1    
     4    1   18 1    
     5    2    3 1    
     6    2   19 1    
     7    2   20 1    
     8    3    4 1    
     9    3   14 1    
    10    4    5 1    
    11    4   21 1    
    12    4   22 1    
    13    5    6 1    
    14    5   23 1    
    15    5   24 1    
    16    6    7 1    
    17    7    8 1    
    18    7   25 1    
    19    7   26 1    
    20    8    9 1    
    21    8   27 1    
    22    8   28 1    
    23    9   10 1    
    24    9   29 1    
    25    9   30 1    
    26   10   11 2    
    27   10   12 2    
    28   10   13 1    
    29   13   31 1    
    30   14   15 1    
    31   14   32 1    
    32   14   33 1    
    33   15   16 1    
    34   15   34 1    
    35   15   35 1    
    36   16   36 1    
@<TRIPOS>SUBSTRUCTURE
     1 UNK         1 GROUP             0       ****    0 ROOT    
@<TRIPOS>MOLECULE
EPPS
36   36    1
SMALL
USER_CHARGES


@<TRIPOS>ATOM
      1 C1         -4.8825   -0.5814    4.8176 C.3       1 UNK         0.0986 
      2 C2         -5.5042   -1.9327    5.2656 C.3       1 UNK         0.1007 
      3 N3         -5.4628   -2.9208    4.1700 N.3       1 UNK        -0.7113 
      4 C4         -4.0543   -3.0918    3.7542 C.3       1 UNK         0.1007 
      5 C5         -3.4405   -1.7343    3.3133 C.3       1 UNK         0.0986 
      6 N6         -3.4690   -0.7604    4.4265 N.3       1 UNK        -0.7051 
      7 C7         -2.8910    0.5308    4.0317 C.3       1 UNK         0.1131 
      8 C8         -1.3493    0.5001    3.9164 C.3       1 UNK        -0.1197 
      9 C9         -0.5549    0.2991    5.2377 C.3       1 UNK        -0.2881 
     10 S10        -0.5504   -1.4697    5.8699 S.3       1 UNK         1.0110 
     11 O11        -0.4528   -2.4101    4.7487 O.2       1 UNK        -0.4915 
     12 O12         0.3447   -1.5797    7.0269 O.2       1 UNK        -0.4915 
     13 O13        -2.0880   -1.5180    6.4346 O.3       1 UNK        -0.5020 
     14 C14        -6.0836   -4.1835    4.6160 C.3       1 UNK         0.0871 
     15 C15        -6.2932   -5.2169    3.4854 C.3       1 UNK         0.1330 
     16 O16        -7.1471   -4.6715    2.4937 O.3       1 UNK        -0.6627 
     17 H17        -4.9551    0.1276    5.6452 H         1 UNK         0.0691 
     18 H18        -5.4692   -0.1563    3.9991 H         1 UNK         0.0691 
     19 H19        -6.5387   -1.7578    5.5683 H         1 UNK         0.0706 
     20 H20        -4.9843   -2.3044    6.1523 H         1 UNK         0.0706 
     21 H21        -3.9858   -3.7817    2.9122 H         1 UNK         0.0706 
     22 H22        -3.4552   -3.5273    4.5577 H         1 UNK         0.0706 
     23 H23        -2.4172   -1.9143    2.9819 H         1 UNK         0.0691 
     24 H24        -3.9775   -1.3514    2.4417 H         1 UNK         0.0691 
     25 H25        -3.1438    1.2768    4.7894 H         1 UNK         0.0626 
     26 H26        -3.3341    0.8920    3.0998 H         1 UNK         0.0626 
     27 H27        -1.0251   -0.2070    3.1520 H         1 UNK         0.0883 
     28 H28        -1.0569    1.4708    3.5121 H         1 UNK         0.0883 
     29 H29        -0.9340    0.9118    6.0526 H         1 UNK         0.1467 
     30 H30         0.4956    0.5461    5.1008 H         1 UNK         0.1467 
     31 H31        -2.6643   -1.2657    5.6571 H         1 UNK         0.3980 
     32 H32        -7.0202   -4.0514    5.1631 H         1 UNK         0.0752 
     33 H33        -5.4294   -4.6448    5.3601 H         1 UNK         0.0752 
     34 H34        -5.3449   -5.5291    3.0462 H         1 UNK         0.0513 
     35 H35        -6.7477   -6.1226    3.8902 H         1 UNK         0.0513 
     36 H36        -6.8194   -3.7697    2.3400 H         1 UNK         0.4242 
@<TRIPOS>BOND
     1    1    2 1    
     2    1    6 1    
     3    1   17 1    
     4    1   18 1    
     5    2    3 1    
     6    2   19 1    
     7    2   20 1    
     8    3    4 1    
     9    3   14 1    
    10    4    5 1    
    11    4   21 1    
    12    4   22 1    
    13    5    6 1    
    14    5   23 1    
    15    5   24 1    
    16    6    7 1    
    17    7    8 1    
    18    7   25 1    
    19    7   26 1    
    20    8    9 1    
    21    8   27 1    
    22    8   28 1    
    23    9   10 1    
    24    9   29 1    
    25    9   30 1    
    26   10   11 2    
    27   10   12 2    
    28   10   13 1    
    29   13   31 1    
    30   14   15 1    
    31   14   32 1    
    32   14   33 1    
    33   15   16 1    
    34   15   34 1    
    35   15   35 1    
    36   16   36 1    
@<TRIPOS>SUBSTRUCTURE
     1 UNK         1 GROUP             0       ****    0 ROOT    
@<TRIPOS>MOLECULE
EPPS
36   36    1
SMALL
USER_CHARGES


@<TRIPOS>ATOM
      1 C1         -4.7603   -0.0873    4.6806 C.3       1 UNK         0.0986 
      2 C2         -5.6268   -1.2938    5.1346 C.3       1 UNK         0.1007 
      3 N3         -5.7336   -2.3038    4.0625 N.3       1 UNK        -0.7113 
      4 C4         -4.3681   -2.7318    3.6968 C.3       1 UNK         0.1007 
      5 C5         -3.5013   -1.5194    3.2571 C.3       1 UNK         0.0986 
      6 N6         -3.3900   -0.5272    4.3486 N.3       1 UNK        -0.7051 
      7 C7         -2.5752    0.6280    3.9500 C.3       1 UNK         0.1131 
      8 C8         -1.0617    0.3170    3.8902 C.3       1 UNK        -0.1197 
      9 C9         -0.3591    0.0067    5.2421 C.3       1 UNK        -0.2881 
     10 S10        -0.6908   -1.7208    5.9012 S.3       1 UNK         1.0110 
     11 O11         0.1322   -1.9631    7.0912 O.2       1 UNK        -0.4915 
     12 O12        -0.7260   -2.6874    4.7989 O.2       1 UNK        -0.4915 
     13 O13        -2.2299   -1.4829    6.4112 O.3       1 UNK        -0.5020 
     14 C14        -6.5729   -3.4276    4.5220 C.3       1 UNK         0.0871 
     15 C15        -6.9753   -4.4706    3.4483 C.3       1 UNK         0.1330 
     16 O16        -5.9295   -5.3740    3.1131 O.3       1 UNK        -0.6627 
     17 H17        -4.7327    0.6468    5.4888 H         1 UNK         0.0691 
     18 H18        -5.2337    0.4117    3.8309 H         1 UNK         0.0691 
     19 H19        -6.6203   -0.9274    5.4013 H         1 UNK         0.0706 
     20 H20        -5.2069   -1.7290    6.0451 H         1 UNK         0.0706 
     21 H21        -4.4041   -3.4287    2.8595 H         1 UNK         0.0706 
     22 H22        -3.8859   -3.2628    4.5210 H         1 UNK         0.0706 
     23 H23        -2.5170   -1.8911    2.9703 H         1 UNK         0.0691 
     24 H24        -3.9272   -1.0682    2.3573 H         1 UNK         0.0691 
     25 H25        -2.9159    1.0394    2.9961 H         1 UNK         0.0626 
     26 H26        -2.7127    1.4263    4.6838 H         1 UNK         0.0626 
     27 H27        -0.8465   -0.4539    3.1494 H         1 UNK         0.0883 
     28 H28        -0.5858    1.2097    3.4804 H         1 UNK         0.0883 
     29 H29        -0.6491    0.6944    6.0334 H         1 UNK         0.1467 
     30 H30         0.7225    0.0600    5.1391 H         1 UNK         0.1467 
     31 H31        -2.7264   -1.1469    5.6106 H         1 UNK         0.3980 
     32 H32        -7.5221   -2.9725    4.8147 H         1 UNK         0.0752 
     33 H33        -6.2395   -3.9112    5.4432 H         1 UNK         0.0752 
     34 H34        -7.8162   -5.0565    3.8240 H         1 UNK         0.0513 
     35 H35        -7.3499   -3.9706    2.5529 H         1 UNK         0.0513 
     36 H36        -6.2678   -5.9915    2.4463 H         1 UNK         0.4242 
@<TRIPOS>BOND
     1    1    2 1    
     2    1    6 1    
     3    1   17 1    
     4    1   18 1    
     5    2    3 1    
     6    2   19 1    
     7    2   20 1    
     8    3    4 1    
     9    3   14 1    
    10    4    5 1    
    11    4   21 1    
    12    4   22 1    
    13    5    6 1    
    14    5   23 1    
    15    5   24 1    
    16    6    7 1    
    17    7    8 1    
    18    7   25 1    
    19    7   26 1    
    20    8    9 1    
    21    8   27 1    
    22    8   28 1    
    23    9   10 1    
    24    9   29 1    
    25    9   30 1    
    26   10   11 2    
    27   10   12 2    
    28   10   13 1    
    29   13   31 1    
    30   14   15 1    
    31   14   32 1    
    32   14   33 1    
    33   15   16 1    
    34   15   34 1    
    35   15   35 1    
    36   16   36 1    
@<TRIPOS>SUBSTRUCTURE
     1 UNK         1 GROUP             0       ****    0 ROOT    
@<TRIPOS>MOLECULE
EPPS
36   36    1
SMALL
USER_CHARGES


@<TRIPOS>ATOM
      1 C1         -4.2616   -0.8926    4.2198 C.3       1 UNK         0.0986 
      2 C2         -4.8722   -2.3166    4.3392 C.3       1 UNK         0.1007 
      3 N3         -4.9123   -2.9895    3.0250 N.3       1 UNK        -0.7113 
      4 C4         -3.5373   -3.0302    2.4878 C.3       1 UNK         0.1007 
      5 C5         -2.9414   -1.6006    2.3708 C.3       1 UNK         0.0986 
      6 N6         -2.8790   -0.9536    3.6972 N.3       1 UNK        -0.7051 
      7 C7         -2.2864    0.3848    3.5748 C.3       1 UNK         0.1131 
      8 C8         -1.8929    1.0054    4.9352 C.3       1 UNK        -0.1197 
      9 C9         -0.7295    0.3187    5.7049 C.3       1 UNK        -0.2881 
     10 S10        -1.2168   -1.2758    6.5701 S.3       1 UNK         1.0110 
     11 O11        -2.5645   -1.1557    7.1360 O.2       1 UNK        -0.4915 
     12 O12        -0.0968   -1.7593    7.3849 O.2       1 UNK        -0.4915 
     13 O13        -1.3106   -2.2383    5.2472 O.3       1 UNK        -0.5020 
     14 C14        -5.4523   -4.3605    3.1099 C.3       1 UNK         0.0871 
     15 C15        -6.9622   -4.4866    3.4370 C.3       1 UNK         0.1330 
     16 O16        -7.2672   -4.2685    4.8087 O.3       1 UNK        -0.6627 
     17 H17        -4.2819   -0.4300    5.2071 H         1 UNK         0.0691 
     18 H18        -4.8960   -0.2712    3.5826 H         1 UNK         0.0691 
     19 H19        -5.8813   -2.2073    4.7365 H         1 UNK         0.0706 
     20 H20        -4.3143   -2.9076    5.0695 H         1 UNK         0.0706 
     21 H21        -3.5383   -3.4884    1.4965 H         1 UNK         0.0706 
     22 H22        -2.8892   -3.6516    3.1110 H         1 UNK         0.0706 
     23 H23        -1.9395   -1.6737    1.9422 H         1 UNK         0.0691 
     24 H24        -3.5319   -1.0077    1.6675 H         1 UNK         0.0691 
     25 H25        -1.3748    0.3131    2.9761 H         1 UNK         0.0626 
     26 H26        -2.9490    1.0602    3.0272 H         1 UNK         0.0626 
     27 H27        -1.5748    2.0273    4.7207 H         1 UNK         0.0883 
     28 H28        -2.7655    1.1355    5.5764 H         1 UNK         0.0883 
     29 H29        -0.3566    0.9613    6.4995 H         1 UNK         0.1467 
     30 H30         0.1108    0.0700    5.0606 H         1 UNK         0.1467 
     31 H31        -1.9551   -1.7834    4.6325 H         1 UNK         0.3980 
     32 H32        -4.8559   -5.0600    3.7004 H         1 UNK         0.0752 
     33 H33        -5.3688   -4.7624    2.0974 H         1 UNK         0.0752 
     34 H34        -7.5464   -3.8155    2.8043 H         1 UNK         0.0513 
     35 H35        -7.2964   -5.4924    3.1756 H         1 UNK         0.0513 
     36 H36        -8.2243   -4.3740    4.9243 H         1 UNK         0.4242 
@<TRIPOS>BOND
     1    1    2 1    
     2    1    6 1    
     3    1   17 1    
     4    1   18 1    
     5    2    3 1    
     6    2   19 1    
     7    2   20 1    
     8    3    4 1    
     9    3   14 1    
    10    4    5 1    
    11    4   21 1    
    12    4   22 1    
    13    5    6 1    
    14    5   23 1    
    15    5   24 1    
    16    6    7 1    
    17    7    8 1    
    18    7   25 1    
    19    7   26 1    
    20    8    9 1    
    21    8   27 1    
    22    8   28 1    
    23    9   10 1    
    24    9   29 1    
    25    9   30 1    
    26   10   11 2    
    27   10   12 2    
    28   10   13 1    
    29   13   31 1    
    30   14   15 1    
    31   14   32 1    
    32   14   33 1    
    33   15   16 1    
    34   15   34 1    
    35   15   35 1    
    36   16   36 1    
@<TRIPOS>SUBSTRUCTURE
     1 UNK         1 GROUP             0       ****    0 ROOT    
@<TRIPOS>MOLECULE
EPPS
36   36    1
SMALL
USER_CHARGES


@<TRIPOS>ATOM
      1 C1         -4.6248   -0.8061    3.8874 C.3       1 UNK         0.0986 
      2 C2         -5.2471   -2.2072    4.1433 C.3       1 UNK         0.1007 
      3 N3         -4.7215   -3.2055    3.1900 N.3       1 UNK        -0.7113 
      4 C4         -3.2503   -3.2300    3.3155 C.3       1 UNK         0.1007 
      5 C5         -2.6452   -1.8252    3.0475 C.3       1 UNK         0.0986 
      6 N6         -3.1550   -0.8453    4.0310 N.3       1 UNK        -0.7051 
      7 C7         -2.5936    0.4929    3.8041 C.3       1 UNK         0.1131 
      8 C8         -1.1157    0.6176    4.2414 C.3       1 UNK        -0.1197 
      9 C9         -0.8283    0.5153    5.7660 C.3       1 UNK        -0.2881 
     10 S10        -0.8880   -1.2358    6.4429 S.3       1 UNK         1.0110 
     11 O11        -0.4570   -1.2395    7.8452 O.2       1 UNK        -0.4915 
     12 O12        -0.3128   -2.1751    5.4746 O.2       1 UNK        -0.4915 
     13 O13        -2.5147   -1.4338    6.4306 O.3       1 UNK        -0.5020 
     14 C14        -5.2627   -4.5569    3.4333 C.3       1 UNK         0.0871 
     15 C15        -6.7665   -4.7632    3.1187 C.3       1 UNK         0.1330 
     16 O16        -7.6340   -4.2241    4.1082 O.3       1 UNK        -0.6627 
     17 H17        -5.0510   -0.1001    4.6034 H         1 UNK         0.0691 
     18 H18        -4.9158   -0.4476    2.8965 H         1 UNK         0.0691 
     19 H19        -6.3269   -2.1112    4.0294 H         1 UNK         0.0706 
     20 H20        -5.0711   -2.5169    5.1763 H         1 UNK         0.0706 
     21 H21        -2.8265   -3.9340    2.5962 H         1 UNK         0.0706 
     22 H22        -2.9445   -3.5819    4.3041 H         1 UNK         0.0706 
     23 H23        -1.5591   -1.9043    3.1055 H         1 UNK         0.0691 
     24 H24        -2.8717   -1.5125    2.0250 H         1 UNK         0.0691 
     25 H25        -2.7071    0.7954    2.7597 H         1 UNK         0.0626 
     26 H26        -3.1659    1.2188    4.3873 H         1 UNK         0.0626 
     27 H27        -0.4783   -0.0626    3.6753 H         1 UNK         0.0883 
     28 H28        -0.7877    1.6077    3.9200 H         1 UNK         0.0883 
     29 H29        -1.5265    1.0963    6.3645 H         1 UNK         0.1467 
     30 H30         0.1750    0.8666    5.9966 H         1 UNK         0.1467 
     31 H31        -2.7975   -1.2515    5.4888 H         1 UNK         0.3980 
     32 H32        -4.9907   -5.0015    4.3934 H         1 UNK         0.0752 
     33 H33        -4.7534   -5.2013    2.7128 H         1 UNK         0.0752 
     34 H34        -7.0092   -4.3562    2.1352 H         1 UNK         0.0513 
     35 H35        -6.9672   -5.8336    3.0449 H         1 UNK         0.0513 
     36 H36        -8.5476   -4.4029    3.8366 H         1 UNK         0.4242 
@<TRIPOS>BOND
     1    1    2 1    
     2    1    6 1    
     3    1   17 1    
     4    1   18 1    
     5    2    3 1    
     6    2   19 1    
     7    2   20 1    
     8    3    4 1    
     9    3   14 1    
    10    4    5 1    
    11    4   21 1    
    12    4   22 1    
    13    5    6 1    
    14    5   23 1    
    15    5   24 1    
    16    6    7 1    
    17    7    8 1    
    18    7   25 1    
    19    7   26 1    
    20    8    9 1    
    21    8   27 1    
    22    8   28 1    
    23    9   10 1    
    24    9   29 1    
    25    9   30 1    
    26   10   11 2    
    27   10   12 2    
    28   10   13 1    
    29   13   31 1    
    30   14   15 1    
    31   14   32 1    
    32   14   33 1    
    33   15   16 1    
    34   15   34 1    
    35   15   35 1    
    36   16   36 1    
@<TRIPOS>SUBSTRUCTURE
     1 UNK         1 GROUP             0       ****    0 ROOT    
@<TRIPOS>MOLECULE
EPPS
36   36    1
SMALL
USER_CHARGES


@<TRIPOS>ATOM
      1 C1         -4.5428   -1.0606    4.4335 C.3       1 UNK         0.0986 
      2 C2         -5.2542   -2.4064    4.7450 C.3       1 UNK         0.1007 
      3 N3         -5.1799   -3.3223    3.5865 N.3       1 UNK        -0.7113 
      4 C4         -3.7561   -3.5343    3.2604 C.3       1 UNK         0.1007 
      5 C5         -3.0513   -2.1847    2.9524 C.3       1 UNK         0.0986 
      6 N6         -3.1145   -1.2824    4.1208 N.3       1 UNK        -0.7051 
      7 C7         -2.4112   -0.0284    3.8185 C.3       1 UNK         0.1131 
      8 C8         -2.3161    0.9210    5.0374 C.3       1 UNK        -0.1197 
      9 C9         -1.9010    0.3110    6.4081 C.3       1 UNK        -0.2881 
     10 S10        -0.4762   -0.9062    6.3049 S.3       1 UNK         1.0110 
     11 O11         0.0071   -1.2272    7.6523 O.2       1 UNK        -0.4915 
     12 O12         0.4568   -0.5122    5.2437 O.2       1 UNK        -0.4915 
     13 O13        -1.3319   -2.2022    5.7708 O.3       1 UNK        -0.5020 
     14 C14        -5.8285   -4.6229    3.8451 C.3       1 UNK         0.0871 
     15 C15        -7.3658   -4.5441    3.9882 C.3       1 UNK         0.1330 
     16 O16        -7.9312   -4.0396    2.7899 O.3       1 UNK        -0.6627 
     17 H17        -4.6472   -0.4092    5.3025 H         1 UNK         0.0691 
     18 H18        -5.0517   -0.5532    3.6103 H         1 UNK         0.0691 
     19 H19        -6.2935   -2.1884    4.9935 H         1 UNK         0.0706 
     20 H20        -4.8137   -2.8609    5.6358 H         1 UNK         0.0706 
     21 H21        -3.6681   -4.1822    2.3857 H         1 UNK         0.0706 
     22 H22        -3.2367   -4.0459    4.0746 H         1 UNK         0.0706 
     23 H23        -2.0106   -2.3853    2.6883 H         1 UNK         0.0691 
     24 H24        -3.5056   -1.7235    2.0716 H         1 UNK         0.0691 
     25 H25        -1.4038   -0.2424    3.4541 H         1 UNK         0.0626 
     26 H26        -2.9207    0.4883    3.0006 H         1 UNK         0.0626 
     27 H27        -1.5887    1.6918    4.7753 H         1 UNK         0.0883 
     28 H28        -3.2458    1.4835    5.1370 H         1 UNK         0.0883 
     29 H29        -2.7182   -0.2200    6.8905 H         1 UNK         0.1467 
     30 H30        -1.5686    1.0856    7.0955 H         1 UNK         0.1467 
     31 H31        -1.9872   -1.8561    5.1026 H         1 UNK         0.3980 
     32 H32        -5.4355   -5.0229    4.7832 H         1 UNK         0.0752 
     33 H33        -5.5722   -5.4008    3.1218 H         1 UNK         0.0752 
     34 H34        -7.7714   -5.5380    4.1843 H         1 UNK         0.0513 
     35 H35        -7.6586   -3.9287    4.8398 H         1 UNK         0.0513 
     36 H36        -7.3785   -3.2787    2.5451 H         1 UNK         0.4242 
@<TRIPOS>BOND
     1    1    2 1    
     2    1    6 1    
     3    1   17 1    
     4    1   18 1    
     5    2    3 1    
     6    2   19 1    
     7    2   20 1    
     8    3    4 1    
     9    3   14 1    
    10    4    5 1    
    11    4   21 1    
    12    4   22 1    
    13    5    6 1    
    14    5   23 1    
    15    5   24 1    
    16    6    7 1    
    17    7    8 1    
    18    7   25 1    
    19    7   26 1    
    20    8    9 1    
    21    8   27 1    
    22    8   28 1    
    23    9   10 1    
    24    9   29 1    
    25    9   30 1    
    26   10   11 2    
    27   10   12 2    
    28   10   13 1    
    29   13   31 1    
    30   14   15 1    
    31   14   32 1    
    32   14   33 1    
    33   15   16 1    
    34   15   34 1    
    35   15   35 1    
    36   16   36 1    
@<TRIPOS>SUBSTRUCTURE
     1 UNK         1 GROUP             0       ****    0 ROOT    
@<TRIPOS>MOLECULE
EPPS
36   36    1
SMALL
USER_CHARGES


@<TRIPOS>ATOM
      1 C1         -3.7321   -1.5601    3.2346 C.3       1 UNK         0.0986 
      2 C2         -4.2053   -3.0399    3.2475 C.3       1 UNK         0.1007 
      3 N3         -5.4538   -3.1871    4.0260 N.3       1 UNK        -0.7113 
      4 C4         -5.2007   -2.6963    5.3948 C.3       1 UNK         0.1007 
      5 C5         -4.7259   -1.2174    5.3742 C.3       1 UNK         0.0986 
      6 N6         -3.4691   -1.0815    4.6090 N.3       1 UNK        -0.7051 
      7 C7         -3.0219    0.3178    4.6331 C.3       1 UNK         0.1131 
      8 C8         -1.6403    0.5229    3.9659 C.3       1 UNK        -0.1197 
      9 C9         -0.5031   -0.4804    4.3173 C.3       1 UNK        -0.2881 
     10 S10        -0.3887   -0.8997    6.1431 S.3       1 UNK         1.0110 
     11 O11         0.8511   -1.6367    6.4112 O.2       1 UNK        -0.4915 
     12 O12        -0.7675    0.2595    6.9583 O.2       1 UNK        -0.4915 
     13 O13        -1.6226   -1.9821    6.1983 O.3       1 UNK        -0.5020 
     14 C14        -5.9314   -4.5828    4.0796 C.3       1 UNK         0.0871 
     15 C15        -6.4328   -5.1302    2.7235 C.3       1 UNK         0.1330 
     16 O16        -7.5207   -4.3450    2.2652 O.3       1 UNK        -0.6627 
     17 H17        -4.4779   -0.9357    2.7364 H         1 UNK         0.0691 
     18 H18        -2.8277   -1.4954    2.6278 H         1 UNK         0.0691 
     19 H19        -3.4139   -3.6786    3.6472 H         1 UNK         0.0706 
     20 H20        -4.3602   -3.3532    2.2143 H         1 UNK         0.0706 
     21 H21        -4.4596   -3.3162    5.9056 H         1 UNK         0.0706 
     22 H22        -6.1156   -2.7613    5.9876 H         1 UNK         0.0706 
     23 H23        -5.5126   -0.5828    4.9581 H         1 UNK         0.0691 
     24 H24        -4.5773   -0.8829    6.4032 H         1 UNK         0.0691 
     25 H25        -3.7606    0.9462    4.1283 H         1 UNK         0.0626 
     26 H26        -2.9773    0.6791    5.6631 H         1 UNK         0.0626 
     27 H27        -1.7631    0.5954    2.8841 H         1 UNK         0.0883 
     28 H28        -1.3063    1.5245    4.2437 H         1 UNK         0.0883 
     29 H29         0.4709   -0.0745    4.0535 H         1 UNK         0.1467 
     30 H30        -0.6101   -1.4284    3.7953 H         1 UNK         0.1467 
     31 H31        -2.3508   -1.6148    5.6235 H         1 UNK         0.3980 
     32 H32        -6.6886   -4.7661    4.8457 H         1 UNK         0.0752 
     33 H33        -5.1019   -5.2185    4.3993 H         1 UNK         0.0752 
     34 H34        -5.6351   -5.1524    1.9799 H         1 UNK         0.0513 
     35 H35        -6.7618   -6.1641    2.8397 H         1 UNK         0.0513 
     36 H36        -7.2468   -3.4225    2.4003 H         1 UNK         0.4242 
@<TRIPOS>BOND
     1    1    2 1    
     2    1    6 1    
     3    1   17 1    
     4    1   18 1    
     5    2    3 1    
     6    2   19 1    
     7    2   20 1    
     8    3    4 1    
     9    3   14 1    
    10    4    5 1    
    11    4   21 1    
    12    4   22 1    
    13    5    6 1    
    14    5   23 1    
    15    5   24 1    
    16    6    7 1    
    17    7    8 1    
    18    7   25 1    
    19    7   26 1    
    20    8    9 1    
    21    8   27 1    
    22    8   28 1    
    23    9   10 1    
    24    9   29 1    
    25    9   30 1    
    26   10   11 2    
    27   10   12 2    
    28   10   13 1    
    29   13   31 1    
    30   14   15 1    
    31   14   32 1    
    32   14   33 1    
    33   15   16 1    
    34   15   34 1    
    35   15   35 1    
    36   16   36 1    
@<TRIPOS>SUBSTRUCTURE
     1 UNK         1 GROUP             0       ****    0 ROOT    
@<TRIPOS>MOLECULE
EPPS
36   36    1
SMALL
USER_CHARGES


@<TRIPOS>ATOM
      1 C1         -4.5553   -0.7579    4.5475 C.3       1 UNK         0.0986 
      2 C2         -5.4275   -1.9467    5.0360 C.3       1 UNK         0.1007 
      3 N3         -5.5550   -2.9746    3.9844 N.3       1 UNK        -0.7113 
      4 C4         -4.1962   -3.4290    3.6194 C.3       1 UNK         0.1007 
      5 C5         -3.3251   -2.2355    3.1382 C.3       1 UNK         0.0986 
      6 N6         -3.1930   -1.2178    4.2013 N.3       1 UNK        -0.7051 
      7 C7         -2.3387   -0.1181    3.7326 C.3       1 UNK         0.1131 
      8 C8         -2.0421    0.9293    4.8331 C.3       1 UNK        -0.1197 
      9 C9         -1.6394    0.4116    6.2449 C.3       1 UNK        -0.2881 
     10 S10        -0.4071   -1.0036    6.2187 S.3       1 UNK         1.0110 
     11 O11         0.1021   -1.2497    7.5723 O.2       1 UNK        -0.4915 
     12 O12         0.5102   -0.8615    5.0829 O.2       1 UNK        -0.4915 
     13 O13        -1.4645   -2.2100    5.8672 O.3       1 UNK        -0.5020 
     14 C14        -6.4138   -4.0741    4.4665 C.3       1 UNK         0.0871 
     15 C15        -6.7938   -5.1021    3.3762 C.3       1 UNK         0.1330 
     16 O16        -7.5090   -4.4537    2.3379 O.3       1 UNK        -0.6627 
     17 H17        -4.5171   -0.0121    5.3428 H         1 UNK         0.0691 
     18 H18        -5.0351   -0.2701    3.6954 H         1 UNK         0.0691 
     19 H19        -6.4151   -1.5674    5.3064 H         1 UNK         0.0706 
     20 H20        -4.9998   -2.3677    5.9494 H         1 UNK         0.0706 
     21 H21        -4.2422   -4.1601    2.8114 H         1 UNK         0.0706 
     22 H22        -3.7089   -3.9297    4.4597 H         1 UNK         0.0706 
     23 H23        -2.3399   -2.6128    2.8555 H         1 UNK         0.0691 
     24 H24        -3.7579   -1.8051    2.2314 H         1 UNK         0.0691 
     25 H25        -1.3938   -0.5136    3.3531 H         1 UNK         0.0626 
     26 H26        -2.8162    0.3793    2.8841 H         1 UNK         0.0626 
     27 H27        -1.2299    1.5543    4.4570 H         1 UNK         0.0883 
     28 H28        -2.8766    1.6284    4.9079 H         1 UNK         0.0883 
     29 H29        -2.4942    0.0579    6.8166 H         1 UNK         0.1467 
     30 H30        -1.1636    1.1971    6.8278 H         1 UNK         0.1467 
     31 H31        -2.1023   -1.8434    5.1932 H         1 UNK         0.3980 
     32 H32        -7.3188   -3.7410    4.9804 H         1 UNK         0.0752 
     33 H33        -5.8744   -4.6147    5.2484 H         1 UNK         0.0752 
     34 H34        -5.9137   -5.6086    2.9780 H         1 UNK         0.0513 
     35 H35        -7.4199   -5.8852    3.8070 H         1 UNK         0.0513 
     36 H36        -7.0119   -3.6395    2.1528 H         1 UNK         0.4242 
@<TRIPOS>BOND
     1    1    2 1    
     2    1    6 1    
     3    1   17 1    
     4    1   18 1    
     5    2    3 1    
     6    2   19 1    
     7    2   20 1    
     8    3    4 1    
     9    3   14 1    
    10    4    5 1    
    11    4   21 1    
    12    4   22 1    
    13    5    6 1    
    14    5   23 1    
    15    5   24 1    
    16    6    7 1    
    17    7    8 1    
    18    7   25 1    
    19    7   26 1    
    20    8    9 1    
    21    8   27 1    
    22    8   28 1    
    23    9   10 1    
    24    9   29 1    
    25    9   30 1    
    26   10   11 2    
    27   10   12 2    
    28   10   13 1    
    29   13   31 1    
    30   14   15 1    
    31   14   32 1    
    32   14   33 1    
    33   15   16 1    
    34   15   34 1    
    35   15   35 1    
    36   16   36 1    
@<TRIPOS>SUBSTRUCTURE
     1 UNK         1 GROUP             0       ****    0 ROOT    
@<TRIPOS>MOLECULE
EPPS
36   36    1
SMALL
USER_CHARGES


@<TRIPOS>ATOM
      1 C1         -3.8325   -1.6059    2.9238 C.3       1 UNK         0.0986 
      2 C2         -4.4310   -2.9861    3.3146 C.3       1 UNK         0.1007 
      3 N3         -5.5266   -2.8262    4.2939 N.3       1 UNK        -0.7113 
      4 C4         -4.9670   -2.1373    5.4754 C.3       1 UNK         0.1007 
      5 C5         -4.3703   -0.7580    5.0822 C.3       1 UNK         0.0986 
      6 N6         -3.2695   -0.9261    4.1084 N.3       1 UNK        -0.7051 
      7 C7         -2.6901    0.3656    3.7170 C.3       1 UNK         0.1131 
      8 C8         -1.8062    0.9975    4.8172 C.3       1 UNK        -0.1197 
      9 C9         -0.4812    0.2586    5.1576 C.3       1 UNK        -0.2881 
     10 S10        -0.7082   -1.2776    6.2142 S.3       1 UNK         1.0110 
     11 O11        -1.7579   -1.0565    7.2142 O.2       1 UNK        -0.4915 
     12 O12         0.6027   -1.8103    6.6016 O.2       1 UNK        -0.4915 
     13 O13        -1.3157   -2.2667    5.0575 O.3       1 UNK        -0.5020 
     14 C14        -6.0964   -4.1313    4.6809 C.3       1 UNK         0.0871 
     15 C15        -7.2410   -4.6357    3.7693 C.3       1 UNK         0.1330 
     16 O16        -6.8062   -5.0049    2.4702 O.3       1 UNK        -0.6627 
     17 H17        -4.5979   -0.9922    2.4416 H         1 UNK         0.0691 
     18 H18        -3.0517   -1.7627    2.1763 H         1 UNK         0.0691 
     19 H19        -3.6433   -3.6326    3.7097 H         1 UNK         0.0706 
     20 H20        -4.7882   -3.4697    2.4062 H         1 UNK         0.0706 
     21 H21        -4.2039   -2.7474    5.9655 H         1 UNK         0.0706 
     22 H22        -5.7513   -1.9748    6.2176 H         1 UNK         0.0706 
     23 H23        -5.1575   -0.1150    4.6802 H         1 UNK         0.0691 
     24 H24        -4.0144   -0.2685    5.9894 H         1 UNK         0.0691 
     25 H25        -2.0564    0.2161    2.8392 H         1 UNK         0.0626 
     26 H26        -3.4680    1.0678    3.4056 H         1 UNK         0.0626 
     27 H27        -1.5344    1.9902    4.4538 H         1 UNK         0.0883 
     28 H28        -2.3849    1.2013    5.7189 H         1 UNK         0.0883 
     29 H29         0.1818    0.8971    5.7372 H         1 UNK         0.1467 
     30 H30         0.0611   -0.0605    4.2703 H         1 UNK         0.1467 
     31 H31        -2.1133   -1.7878    4.6907 H         1 UNK         0.3980 
     32 H32        -6.5895   -3.9867    5.6454 H         1 UNK         0.0752 
     33 H33        -5.3716   -4.9162    4.9093 H         1 UNK         0.0752 
     34 H34        -7.7039   -5.5079    4.2340 H         1 UNK         0.0513 
     35 H35        -8.0321   -3.8861    3.7044 H         1 UNK         0.0513 
     36 H36        -6.5519   -4.1877    2.0167 H         1 UNK         0.4242 
@<TRIPOS>BOND
     1    1    2 1    
     2    1    6 1    
     3    1   17 1    
     4    1   18 1    
     5    2    3 1    
     6    2   19 1    
     7    2   20 1    
     8    3    4 1    
     9    3   14 1    
    10    4    5 1    
    11    4   21 1    
    12    4   22 1    
    13    5    6 1    
    14    5   23 1    
    15    5   24 1    
    16    6    7 1    
    17    7    8 1    
    18    7   25 1    
    19    7   26 1    
    20    8    9 1    
    21    8   27 1    
    22    8   28 1    
    23    9   10 1    
    24    9   29 1    
    25    9   30 1    
    26   10   11 2    
    27   10   12 2    
    28   10   13 1    
    29   13   31 1    
    30   14   15 1    
    31   14   32 1    
    32   14   33 1    
    33   15   16 1    
    34   15   34 1    
    35   15   35 1    
    36   16   36 1    
@<TRIPOS>SUBSTRUCTURE
     1 UNK         1 GROUP             0       ****    0 ROOT    
@<TRIPOS>MOLECULE
EPPS
36   36    1
SMALL
USER_CHARGES


@<TRIPOS>ATOM
      1 C1         -4.7766   -0.3838    4.8458 C.3       1 UNK         0.0986 
      2 C2         -5.4742   -1.6977    5.2939 C.3       1 UNK         0.1007 
      3 N3         -5.4885   -2.6881    4.1999 N.3       1 UNK        -0.7113 
      4 C4         -4.0953   -2.9361    3.7747 C.3       1 UNK         0.1007 
      5 C5         -3.4065   -1.6140    3.3368 C.3       1 UNK         0.0986 
      6 N6         -3.3762   -0.6426    4.4523 N.3       1 UNK        -0.7051 
      7 C7         -2.7265    0.6144    4.0582 C.3       1 UNK         0.1131 
      8 C8         -1.1895    0.4962    3.9360 C.3       1 UNK        -0.1197 
      9 C9         -0.4019    0.2464    5.2531 C.3       1 UNK        -0.2881 
     10 S10        -0.4953   -1.5216    5.8805 S.3       1 UNK         1.0110 
     11 O11         0.3968   -1.6856    7.0335 O.2       1 UNK        -0.4915 
     12 O12        -0.4559   -2.4628    4.7565 O.2       1 UNK        -0.4915 
     13 O13        -2.0308   -1.4840    6.4515 O.3       1 UNK        -0.5020 
     14 C14        -6.1831   -3.9128    4.6443 C.3       1 UNK         0.0871 
     15 C15        -6.3930   -5.0046    3.5638 C.3       1 UNK         0.1330 
     16 O16        -7.2945   -4.5905    2.5447 O.3       1 UNK        -0.6627 
     17 H17        -4.8072    0.3273    5.6742 H         1 UNK         0.0691 
     18 H18        -5.3394    0.0754    4.0289 H         1 UNK         0.0691 
     19 H19        -6.4975   -1.4647    5.5957 H         1 UNK         0.0706 
     20 H20        -4.9765   -2.0973    6.1810 H         1 UNK         0.0706 
     21 H21        -4.0746   -3.6208    2.9261 H         1 UNK         0.0706 
     22 H22        -3.5176   -3.4125    4.5705 H         1 UNK         0.0706 
     23 H23        -2.3960   -1.8509    3.0020 H         1 UNK         0.0691 
     24 H24        -3.9227   -1.1988    2.4674 H         1 UNK         0.0691 
     25 H25        -3.1520    1.0031    3.1292 H         1 UNK         0.0626 
     26 H26        -2.9331    1.3716    4.8189 H         1 UNK         0.0626 
     27 H27        -0.9094   -0.2258    3.1681 H         1 UNK         0.0883 
     28 H28        -0.8440    1.4498    3.5330 H         1 UNK         0.0883 
     29 H29        -0.7418    0.8774    6.0713 H         1 UNK         0.1467 
     30 H30         0.6603    0.4337    5.1119 H         1 UNK         0.1467 
     31 H31        -2.5951   -1.1966    5.6773 H         1 UNK         0.3980 
     32 H32        -7.1270   -3.7270    5.1617 H         1 UNK         0.0752 
     33 H33        -5.5672   -4.3673    5.4243 H         1 UNK         0.0752 
     34 H34        -5.4472   -5.3301    3.1291 H         1 UNK         0.0513 
     35 H35        -6.8057   -5.8955    4.0407 H         1 UNK         0.0513 
     36 H36        -7.3764   -5.3126    1.9025 H         1 UNK         0.4242 
@<TRIPOS>BOND
     1    1    2 1    
     2    1    6 1    
     3    1   17 1    
     4    1   18 1    
     5    2    3 1    
     6    2   19 1    
     7    2   20 1    
     8    3    4 1    
     9    3   14 1    
    10    4    5 1    
    11    4   21 1    
    12    4   22 1    
    13    5    6 1    
    14    5   23 1    
    15    5   24 1    
    16    6    7 1    
    17    7    8 1    
    18    7   25 1    
    19    7   26 1    
    20    8    9 1    
    21    8   27 1    
    22    8   28 1    
    23    9   10 1    
    24    9   29 1    
    25    9   30 1    
    26   10   11 2    
    27   10   12 2    
    28   10   13 1    
    29   13   31 1    
    30   14   15 1    
    31   14   32 1    
    32   14   33 1    
    33   15   16 1    
    34   15   34 1    
    35   15   35 1    
    36   16   36 1    
@<TRIPOS>SUBSTRUCTURE
     1 UNK         1 GROUP             0       ****    0 ROOT    
@<TRIPOS>MOLECULE
EPPS
36   36    1
SMALL
USER_CHARGES


@<TRIPOS>ATOM
      1 C1         -4.2715   -0.7503    4.9631 C.3       1 UNK         0.0986 
      2 C2         -4.8691   -2.1326    5.3431 C.3       1 UNK         0.1007 
      3 N3         -5.3302   -2.8559    4.1424 N.3       1 UNK        -0.7113 
      4 C4         -4.1878   -3.0021    3.2165 C.3       1 UNK         0.1007 
      5 C5         -3.5868   -1.6155    2.8534 C.3       1 UNK         0.0986 
      6 N6         -3.1089   -0.9144    4.0631 N.3       1 UNK        -0.7051 
      7 C7         -2.5241    0.3810    3.6924 C.3       1 UNK         0.1131 
      8 C8         -1.7194    1.0387    4.8373 C.3       1 UNK        -0.1197 
      9 C9         -0.4087    0.3228    5.2697 C.3       1 UNK        -0.2881 
     10 S10        -0.6811   -1.2034    6.3301 S.3       1 UNK         1.0110 
     11 O11        -1.7947   -0.9850    7.2591 O.2       1 UNK        -0.4915 
     12 O12         0.6098   -1.7125    6.8061 O.2       1 UNK        -0.4915 
     13 O13        -1.2011   -2.2153    5.1507 O.3       1 UNK        -0.5020 
     14 C14        -5.9234   -4.1494    4.5357 C.3       1 UNK         0.0871 
     15 C15        -6.5710   -4.9748    3.3943 C.3       1 UNK         0.1330 
     16 O16        -7.7315   -4.3463    2.8640 O.3       1 UNK        -0.6627 
     17 H17        -3.9816   -0.2397    5.8820 H         1 UNK         0.0691 
     18 H18        -5.0424   -0.1278    4.5018 H         1 UNK         0.0691 
     19 H19        -5.7070   -1.9756    6.0257 H         1 UNK         0.0706 
     20 H20        -4.1288   -2.7165    5.8960 H         1 UNK         0.0706 
     21 H21        -4.5103   -3.4793    2.2904 H         1 UNK         0.0706 
     22 H22        -3.4139   -3.6451    3.6426 H         1 UNK         0.0706 
     23 H23        -2.7586   -1.7663    2.1575 H         1 UNK         0.0691 
     24 H24        -4.3296   -1.0186    2.3179 H         1 UNK         0.0691 
     25 H25        -1.8347    0.2307    2.8576 H         1 UNK         0.0626 
     26 H26        -3.2907    1.0680    3.3243 H         1 UNK         0.0626 
     27 H27        -1.4383    2.0304    4.4784 H         1 UNK         0.0883 
     28 H28        -2.3560    1.2460    5.6982 H         1 UNK         0.0883 
     29 H29         0.2080    0.9777    5.8814 H         1 UNK         0.1467 
     30 H30         0.1926    0.0006    4.4225 H         1 UNK         0.1467 
     31 H31        -1.9806   -1.7525    4.7282 H         1 UNK         0.3980 
     32 H32        -6.6178   -4.0842    5.3764 H         1 UNK         0.0752 
     33 H33        -5.1153   -4.7649    4.9391 H         1 UNK         0.0752 
     34 H34        -6.8630   -5.9499    3.7885 H         1 UNK         0.0513 
     35 H35        -5.8575   -5.1943    2.5992 H         1 UNK         0.0513 
     36 H36        -8.0823   -4.9086    2.1560 H         1 UNK         0.4242 
@<TRIPOS>BOND
     1    1    2 1    
     2    1    6 1    
     3    1   17 1    
     4    1   18 1    
     5    2    3 1    
     6    2   19 1    
     7    2   20 1    
     8    3    4 1    
     9    3   14 1    
    10    4    5 1    
    11    4   21 1    
    12    4   22 1    
    13    5    6 1    
    14    5   23 1    
    15    5   24 1    
    16    6    7 1    
    17    7    8 1    
    18    7   25 1    
    19    7   26 1    
    20    8    9 1    
    21    8   27 1    
    22    8   28 1    
    23    9   10 1    
    24    9   29 1    
    25    9   30 1    
    26   10   11 2    
    27   10   12 2    
    28   10   13 1    
    29   13   31 1    
    30   14   15 1    
    31   14   32 1    
    32   14   33 1    
    33   15   16 1    
    34   15   34 1    
    35   15   35 1    
    36   16   36 1    
@<TRIPOS>SUBSTRUCTURE
     1 UNK         1 GROUP             0       ****    0 ROOT    
@<TRIPOS>MOLECULE
EPPS
36   36    1
SMALL
USER_CHARGES


@<TRIPOS>ATOM
      1 C1         -4.3268   -0.4719    4.9192 C.3       1 UNK         0.0986 
      2 C2         -5.1018   -1.7564    5.3204 C.3       1 UNK         0.1007 
      3 N3         -5.6726   -2.4231    4.1327 N.3       1 UNK        -0.7113 
      4 C4         -4.5678   -2.7336    3.2029 C.3       1 UNK         0.1007 
      5 C5         -3.7801   -1.4495    2.8198 C.3       1 UNK         0.0986 
      6 N6         -3.2029   -0.8053    4.0175 N.3       1 UNK        -0.7051 
      7 C7         -2.4476    0.3924    3.6270 C.3       1 UNK         0.1131 
      8 C8         -1.5534    0.9473    4.7599 C.3       1 UNK        -0.1197 
      9 C9         -0.3513    0.0630    5.1965 C.3       1 UNK        -0.2881 
     10 S10        -0.8255   -1.3983    6.2772 S.3       1 UNK         1.0110 
     11 O11        -1.8939   -1.0175    7.2070 O.2       1 UNK        -0.4915 
     12 O12         0.3856   -2.0740    6.7555 O.2       1 UNK        -0.4915 
     13 O13        -1.4854   -2.3434    5.1125 O.3       1 UNK        -0.5020 
     14 C14        -6.4225   -3.6238    4.5495 C.3       1 UNK         0.0871 
     15 C15        -7.2675   -4.3238    3.4533 C.3       1 UNK         0.1330 
     16 O16        -6.4975   -5.1018    2.5451 O.3       1 UNK        -0.6627 
     17 H17        -3.9652    0.0074    5.8296 H         1 UNK         0.0691 
     18 H18        -5.0093    0.2424    4.4517 H         1 UNK         0.0691 
     19 H19        -5.9000   -1.4788    6.0120 H         1 UNK         0.0706 
     20 H20        -4.4406   -2.4301    5.8712 H         1 UNK         0.0706 
     21 H21        -4.9620   -3.1617    2.2811 H         1 UNK         0.0706 
     22 H22        -3.8916   -3.4794    3.6276 H         1 UNK         0.0706 
     23 H23        -2.9845   -1.7240    2.1238 H         1 UNK         0.0691 
     24 H24        -4.4347   -0.7620    2.2779 H         1 UNK         0.0691 
     25 H25        -1.7904    0.1378    2.7916 H         1 UNK         0.0626 
     26 H26        -3.1144    1.1737    3.2529 H         1 UNK         0.0626 
     27 H27        -1.1405    1.8862    4.3868 H         1 UNK         0.0883 
     28 H28        -2.1504    1.2510    5.6206 H         1 UNK         0.0883 
     29 H29         0.3530    0.6341    5.7975 H         1 UNK         0.1467 
     30 H30         0.1952   -0.3492    4.3511 H         1 UNK         0.1467 
     31 H31        -2.1967   -1.7835    4.6873 H         1 UNK         0.3980 
     32 H32        -7.1678   -3.2585    5.2601 H         1 UNK         0.0752 
     33 H33        -5.8551   -4.3445    5.1430 H         1 UNK         0.0752 
     34 H34        -7.9923   -4.9843    3.9330 H         1 UNK         0.0513 
     35 H35        -7.8622   -3.5879    2.9088 H         1 UNK         0.0513 
     36 H36        -6.1547   -5.8728    3.0221 H         1 UNK         0.4242 
@<TRIPOS>BOND
     1    1    2 1    
     2    1    6 1    
     3    1   17 1    
     4    1   18 1    
     5    2    3 1    
     6    2   19 1    
     7    2   20 1    
     8    3    4 1    
     9    3   14 1    
    10    4    5 1    
    11    4   21 1    
    12    4   22 1    
    13    5    6 1    
    14    5   23 1    
    15    5   24 1    
    16    6    7 1    
    17    7    8 1    
    18    7   25 1    
    19    7   26 1    
    20    8    9 1    
    21    8   27 1    
    22    8   28 1    
    23    9   10 1    
    24    9   29 1    
    25    9   30 1    
    26   10   11 2    
    27   10   12 2    
    28   10   13 1    
    29   13   31 1    
    30   14   15 1    
    31   14   32 1    
    32   14   33 1    
    33   15   16 1    
    34   15   34 1    
    35   15   35 1    
    36   16   36 1    
@<TRIPOS>SUBSTRUCTURE
     1 UNK         1 GROUP             0       ****    0 ROOT    
@<TRIPOS>MOLECULE
EPPS
36   36    1
SMALL
USER_CHARGES


@<TRIPOS>ATOM
      1 C1         -4.3056   -0.9656    4.6561 C.3       1 UNK         0.0986 
      2 C2         -4.8144   -2.4200    4.8555 C.3       1 UNK         0.1007 
      3 N3         -5.0456   -3.0801    3.5538 N.3       1 UNK        -0.7113 
      4 C4         -3.7874   -3.0481    2.7829 C.3       1 UNK         0.1007 
      5 C5         -3.2869   -1.5892    2.5965 C.3       1 UNK         0.0986 
      6 N6         -3.0309   -0.9527    3.9051 N.3       1 UNK        -0.7051 
      7 C7         -2.5327    0.4149    3.7076 C.3       1 UNK         0.1131 
      8 C8         -1.9418    1.0416    4.9918 C.3       1 UNK        -0.1197 
      9 C9         -0.6310    0.4084    5.5378 C.3       1 UNK        -0.2881 
     10 S10        -0.8823   -1.2200    6.4396 S.3       1 UNK         1.0110 
     11 O11        -2.1176   -1.1787    7.2290 O.2       1 UNK        -0.4915 
     12 O12         0.3835   -1.6533    7.0413 O.2       1 UNK        -0.4915 
     13 O13        -1.1527   -2.1698    5.1319 O.3       1 UNK        -0.5020 
     14 C14        -5.5148   -4.4724    3.6894 C.3       1 UNK         0.0871 
     15 C15        -6.8836   -4.6607    4.3937 C.3       1 UNK         0.1330 
     16 O16        -7.9528   -4.0617    3.6723 O.3       1 UNK        -0.6627 
     17 H17        -4.1803   -0.5108    5.6393 H         1 UNK         0.0691 
     18 H18        -5.0694   -0.3740    4.1450 H         1 UNK         0.0691 
     19 H19        -5.7431   -2.3744    5.4258 H         1 UNK         0.0706 
     20 H20        -4.1043   -2.9843    5.4648 H         1 UNK         0.0706 
     21 H21        -3.9448   -3.4922    1.7978 H         1 UNK         0.0706 
     22 H22        -3.0122   -3.6463    3.2684 H         1 UNK         0.0706 
     23 H23        -2.3698   -1.6081    2.0037 H         1 UNK         0.0691 
     24 H24        -4.0149   -1.0186    2.0140 H         1 UNK         0.0691 
     25 H25        -1.7349    0.3950    2.9609 H         1 UNK         0.0626 
     26 H26        -3.3110    1.0614    3.2934 H         1 UNK         0.0626 
     27 H27        -1.7162    2.0806    4.7451 H         1 UNK         0.0883 
     28 H28        -2.6962    1.1197    5.7756 H         1 UNK         0.0883 
     29 H29        -0.1606    1.0603    6.2706 H         1 UNK         0.1467 
     30 H30         0.0982    0.2125    4.7548 H         1 UNK         0.1467 
     31 H31        -1.9161   -1.7429    4.6469 H         1 UNK         0.3980 
     32 H32        -4.7807   -5.0061    4.2984 H         1 UNK         0.0752 
     33 H33        -5.5024   -5.0370    2.7542 H         1 UNK         0.0752 
     34 H34        -7.0869   -5.7295    4.4817 H         1 UNK         0.0513 
     35 H35        -6.8625   -4.2888    5.4187 H         1 UNK         0.0513 
     36 H36        -7.9498   -4.4258    2.7742 H         1 UNK         0.4242 
@<TRIPOS>BOND
     1    1    2 1    
     2    1    6 1    
     3    1   17 1    
     4    1   18 1    
     5    2    3 1    
     6    2   19 1    
     7    2   20 1    
     8    3    4 1    
     9    3   14 1    
    10    4    5 1    
    11    4   21 1    
    12    4   22 1    
    13    5    6 1    
    14    5   23 1    
    15    5   24 1    
    16    6    7 1    
    17    7    8 1    
    18    7   25 1    
    19    7   26 1    
    20    8    9 1    
    21    8   27 1    
    22    8   28 1    
    23    9   10 1    
    24    9   29 1    
    25    9   30 1    
    26   10   11 2    
    27   10   12 2    
    28   10   13 1    
    29   13   31 1    
    30   14   15 1    
    31   14   32 1    
    32   14   33 1    
    33   15   16 1    
    34   15   34 1    
    35   15   35 1    
    36   16   36 1    
@<TRIPOS>SUBSTRUCTURE
     1 UNK         1 GROUP             0       ****    0 ROOT    
@<TRIPOS>MOLECULE
EPPS
36   36    1
SMALL
USER_CHARGES


@<TRIPOS>ATOM
      1 C1         -4.5343   -0.2074    3.4398 C.3       1 UNK         0.0986 
      2 C2         -5.5690   -1.3553    3.6056 C.3       1 UNK         0.1007 
      3 N3         -5.2285   -2.4862    2.7206 N.3       1 UNK        -0.7113 
      4 C4         -3.8684   -2.9534    3.0463 C.3       1 UNK         0.1007 
      5 C5         -2.8451   -1.7964    2.8790 C.3       1 UNK         0.0986 
      6 N6         -3.1732   -0.6709    3.7831 N.3       1 UNK        -0.7051 
      7 C7         -2.2167    0.4346    3.6422 C.3       1 UNK         0.1131 
      8 C8         -0.8411    0.1377    4.2828 C.3       1 UNK        -0.1197 
      9 C9         -0.8062    0.0091    5.8319 C.3       1 UNK        -0.2881 
     10 S10        -1.4617   -1.6271    6.4812 S.3       1 UNK         1.0110 
     11 O11        -1.2447   -1.7072    7.9298 O.2       1 UNK        -0.4915 
     12 O12        -1.0565   -2.7239    5.5961 O.2       1 UNK        -0.4915 
     13 O13        -3.0586   -1.3491    6.2405 O.3       1 UNK        -0.5020 
     14 C14        -6.2276   -3.5738    2.7334 C.3       1 UNK         0.0871 
     15 C15        -6.6037   -4.2370    4.0874 C.3       1 UNK         0.1330 
     16 O16        -5.5784   -5.0729    4.6070 O.3       1 UNK        -0.6627 
     17 H17        -4.8232    0.6192    4.0926 H         1 UNK         0.0691 
     18 H18        -4.5731    0.1823    2.4193 H         1 UNK         0.0691 
     19 H19        -6.5649   -0.9780    3.3649 H         1 UNK         0.0706 
     20 H20        -5.5981   -1.6650    4.6523 H         1 UNK         0.0706 
     21 H21        -3.5899   -3.7810    2.3909 H         1 UNK         0.0706 
     22 H22        -3.8129   -3.3347    4.0676 H         1 UNK         0.0706 
     23 H23        -1.8501   -2.1880    3.0930 H         1 UNK         0.0691 
     24 H24        -2.8232   -1.4696    1.8363 H         1 UNK         0.0691 
     25 H25        -2.0938    0.7167    2.5932 H         1 UNK         0.0626 
     26 H26        -2.6223    1.3180    4.1417 H         1 UNK         0.0626 
     27 H27        -0.3606   -0.7176    3.8063 H         1 UNK         0.0883 
     28 H28        -0.1965    0.9775    4.0172 H         1 UNK         0.0883 
     29 H29        -1.3813    0.7861    6.3306 H         1 UNK         0.1467 
     30 H30         0.2146    0.0647    6.2035 H         1 UNK         0.1467 
     31 H31        -3.1464   -1.1239    5.2700 H         1 UNK         0.3980 
     32 H32        -6.0636   -4.3273    1.9605 H         1 UNK         0.0752 
     33 H33        -7.1462   -3.1029    2.3773 H         1 UNK         0.0752 
     34 H34        -6.9066   -3.4940    4.8264 H         1 UNK         0.0513 
     35 H35        -7.4905   -4.8546    3.9345 H         1 UNK         0.0513 
     36 H36        -5.9024   -5.4731    5.4286 H         1 UNK         0.4242 
@<TRIPOS>BOND
     1    1    2 1    
     2    1    6 1    
     3    1   17 1    
     4    1   18 1    
     5    2    3 1    
     6    2   19 1    
     7    2   20 1    
     8    3    4 1    
     9    3   14 1    
    10    4    5 1    
    11    4   21 1    
    12    4   22 1    
    13    5    6 1    
    14    5   23 1    
    15    5   24 1    
    16    6    7 1    
    17    7    8 1    
    18    7   25 1    
    19    7   26 1    
    20    8    9 1    
    21    8   27 1    
    22    8   28 1    
    23    9   10 1    
    24    9   29 1    
    25    9   30 1    
    26   10   11 2    
    27   10   12 2    
    28   10   13 1    
    29   13   31 1    
    30   14   15 1    
    31   14   32 1    
    32   14   33 1    
    33   15   16 1    
    34   15   34 1    
    35   15   35 1    
    36   16   36 1    
@<TRIPOS>SUBSTRUCTURE
     1 UNK         1 GROUP             0       ****    0 ROOT    
@<TRIPOS>MOLECULE
EPPS
36   36    1
SMALL
USER_CHARGES


@<TRIPOS>ATOM
      1 C1         -4.3222   -0.4390    4.0927 C.3       1 UNK         0.0986 
      2 C2         -5.2710   -1.6630    4.2159 C.3       1 UNK         0.1007 
      3 N3         -5.4422   -2.3134    2.9037 N.3       1 UNK        -0.7113 
      4 C4         -4.1179   -2.7270    2.4002 C.3       1 UNK         0.1007 
      5 C5         -3.1722   -1.4985    2.2907 C.3       1 UNK         0.0986 
      6 N6         -2.9867   -0.8569    3.6096 N.3       1 UNK        -0.7051 
      7 C7         -2.0719    0.2855    3.4873 C.3       1 UNK         0.1131 
      8 C8         -1.5682    0.8134    4.8506 C.3       1 UNK        -0.1197 
      9 C9         -0.6379   -0.1304    5.6637 C.3       1 UNK        -0.2881 
     10 S10        -1.5372   -1.5294    6.5369 S.3       1 UNK         1.0110 
     11 O11        -2.8230   -1.0578    7.0610 O.2       1 UNK        -0.4915 
     12 O12        -0.5980   -2.2641    7.3915 O.2       1 UNK        -0.4915 
     13 O13        -1.8399   -2.4647    5.2258 O.3       1 UNK        -0.5020 
     14 C14        -6.4368   -3.4048    2.9299 C.3       1 UNK         0.0871 
     15 C15        -6.1069   -4.7079    3.7094 C.3       1 UNK         0.1330 
     16 O16        -6.1400   -4.5419    5.1205 O.3       1 UNK        -0.6627 
     17 H17        -4.2491    0.0354    5.0719 H         1 UNK         0.0691 
     18 H18        -4.7649    0.3071    3.4279 H         1 UNK         0.0691 
     19 H19        -6.2388   -1.3341    4.5995 H         1 UNK         0.0706 
     20 H20        -4.8649   -2.3572    4.9539 H         1 UNK         0.0706 
     21 H21        -4.2191   -3.1905    1.4168 H         1 UNK         0.0706 
     22 H22        -3.6615   -3.4752    3.0516 H         1 UNK         0.0706 
     23 H23        -2.2092   -1.8336    1.8995 H         1 UNK         0.0691 
     24 H24        -3.5684   -0.7896    1.5590 H         1 UNK         0.0691 
     25 H25        -1.1934   -0.0255    2.9163 H         1 UNK         0.0626 
     26 H26        -2.5287    1.0952    2.9121 H         1 UNK         0.0626 
     27 H27        -0.9951    1.7162    4.6319 H         1 UNK         0.0883 
     28 H28        -2.3950    1.1743    5.4635 H         1 UNK         0.0883 
     29 H29        -0.1332    0.4128    6.4596 H         1 UNK         0.1467 
     30 H30         0.1268   -0.5986    5.0478 H         1 UNK         0.1467 
     31 H31        -2.3328   -1.8747    4.5860 H         1 UNK         0.3980 
     32 H32        -6.5330   -3.7094    1.8856 H         1 UNK         0.0752 
     33 H33        -7.4522   -3.0661    3.1449 H         1 UNK         0.0752 
     34 H34        -6.8486   -5.4644    3.4463 H         1 UNK         0.0513 
     35 H35        -5.1532   -5.1326    3.3935 H         1 UNK         0.0513 
     36 H36        -5.9575   -5.4016    5.5300 H         1 UNK         0.4242 
@<TRIPOS>BOND
     1    1    2 1    
     2    1    6 1    
     3    1   17 1    
     4    1   18 1    
     5    2    3 1    
     6    2   19 1    
     7    2   20 1    
     8    3    4 1    
     9    3   14 1    
    10    4    5 1    
    11    4   21 1    
    12    4   22 1    
    13    5    6 1    
    14    5   23 1    
    15    5   24 1    
    16    6    7 1    
    17    7    8 1    
    18    7   25 1    
    19    7   26 1    
    20    8    9 1    
    21    8   27 1    
    22    8   28 1    
    23    9   10 1    
    24    9   29 1    
    25    9   30 1    
    26   10   11 2    
    27   10   12 2    
    28   10   13 1    
    29   13   31 1    
    30   14   15 1    
    31   14   32 1    
    32   14   33 1    
    33   15   16 1    
    34   15   34 1    
    35   15   35 1    
    36   16   36 1    
@<TRIPOS>SUBSTRUCTURE
     1 UNK         1 GROUP             0       ****    0 ROOT    
@<TRIPOS>MOLECULE
EPPS
36   36    1
SMALL
USER_CHARGES


@<TRIPOS>ATOM
      1 C1         -4.3503   -1.1576    4.6643 C.3       1 UNK         0.0986 
      2 C2         -4.7893   -2.6306    4.9106 C.3       1 UNK         0.1007 
      3 N3         -4.9643   -3.3914    3.6539 N.3       1 UNK        -0.7113 
      4 C4         -3.7188   -3.2889    2.8671 C.3       1 UNK         0.1007 
      5 C5         -3.2845   -1.8135    2.6244 C.3       1 UNK         0.0986 
      6 N6         -3.0805   -1.1091    3.9070 N.3       1 UNK        -0.7051 
      7 C7         -2.6498    0.2730    3.6572 C.3       1 UNK         0.1131 
      8 C8         -2.0917    0.9765    4.9158 C.3       1 UNK        -0.1197 
      9 C9         -0.7498    0.4316    5.4814 C.3       1 UNK        -0.2881 
     10 S10        -0.9164   -1.1732    6.4432 S.3       1 UNK         1.0110 
     11 O11        -2.1512   -1.1658    7.2345 O.2       1 UNK        -0.4915 
     12 O12         0.3707   -1.5184    7.0567 O.2       1 UNK        -0.4915 
     13 O13        -1.1390   -2.1833    5.1722 O.3       1 UNK        -0.5020 
     14 C14        -6.1576   -3.0350    2.8574 C.3       1 UNK         0.0871 
     15 C15        -7.4986   -3.3813    3.5435 C.3       1 UNK         0.1330 
     16 O16        -7.5656   -4.7769    3.7842 O.3       1 UNK        -0.6627 
     17 H17        -4.2352   -0.6748    5.6353 H         1 UNK         0.0691 
     18 H18        -5.1395   -0.6045    4.1505 H         1 UNK         0.0691 
     19 H19        -5.7006   -2.6445    5.5089 H         1 UNK         0.0706 
     20 H20        -4.0405   -3.1297    5.5295 H         1 UNK         0.0706 
     21 H21        -3.8360   -3.7964    1.9074 H         1 UNK         0.0706 
     22 H22        -2.9188   -3.8261    3.3810 H         1 UNK         0.0706 
     23 H23        -2.3541   -1.8178    2.0523 H         1 UNK         0.0691 
     24 H24        -4.0188   -1.2985    2.0005 H         1 UNK         0.0691 
     25 H25        -1.8509    0.2645    2.9113 H         1 UNK         0.0626 
     26 H26        -3.4582    0.8641    3.2189 H         1 UNK         0.0626 
     27 H27        -1.9196    2.0158    4.6304 H         1 UNK         0.0883 
     28 H28        -2.8486    1.0446    5.6980 H         1 UNK         0.0883 
     29 H29        -0.3128    1.1333    6.1884 H         1 UNK         0.1467 
     30 H30        -0.0122    0.2444    4.7042 H         1 UNK         0.1467 
     31 H31        -1.9253   -1.8161    4.6754 H         1 UNK         0.3980 
     32 H32        -6.1525   -3.4452    1.8449 H         1 UNK         0.0752 
     33 H33        -6.1564   -1.9579    2.6816 H         1 UNK         0.0752 
     34 H34        -7.6303   -2.8244    4.4718 H         1 UNK         0.0513 
     35 H35        -8.3302   -3.0897    2.8999 H         1 UNK         0.0513 
     36 H36        -6.7004   -5.0163    4.1564 H         1 UNK         0.4242 
@<TRIPOS>BOND
     1    1    2 1    
     2    1    6 1    
     3    1   17 1    
     4    1   18 1    
     5    2    3 1    
     6    2   19 1    
     7    2   20 1    
     8    3    4 1    
     9    3   14 1    
    10    4    5 1    
    11    4   21 1    
    12    4   22 1    
    13    5    6 1    
    14    5   23 1    
    15    5   24 1    
    16    6    7 1    
    17    7    8 1    
    18    7   25 1    
    19    7   26 1    
    20    8    9 1    
    21    8   27 1    
    22    8   28 1    
    23    9   10 1    
    24    9   29 1    
    25    9   30 1    
    26   10   11 2    
    27   10   12 2    
    28   10   13 1    
    29   13   31 1    
    30   14   15 1    
    31   14   32 1    
    32   14   33 1    
    33   15   16 1    
    34   15   34 1    
    35   15   35 1    
    36   16   36 1    
@<TRIPOS>SUBSTRUCTURE
     1 UNK         1 GROUP             0       ****    0 ROOT    
@<TRIPOS>MOLECULE
EPPS
36   36    1
SMALL
USER_CHARGES


@<TRIPOS>ATOM
      1 C1         -4.8060   -0.9150    4.3275 C.3       1 UNK         0.0986 
      2 C2         -5.3829   -2.2814    4.8008 C.3       1 UNK         0.1007 
      3 N3         -5.0158   -3.3980    3.9022 N.3       1 UNK        -0.7113 
      4 C4         -3.5468   -3.4151    3.7527 C.3       1 UNK         0.1007 
      5 C5         -2.9789   -2.0468    3.2748 C.3       1 UNK         0.0986 
      6 N6         -3.3330   -0.9723    4.2279 N.3       1 UNK        -0.7051 
      7 C7         -2.8086    0.3305    3.7969 C.3       1 UNK         0.1131 
      8 C8         -1.2804    0.4683    3.9874 C.3       1 UNK        -0.1197 
      9 C9         -0.7608    0.4997    5.4524 C.3       1 UNK        -0.2881 
     10 S10        -0.7184   -1.1816    6.2889 S.3       1 UNK         1.0110 
     11 O11        -0.0761   -1.0647    7.6026 O.2       1 UNK        -0.4915 
     12 O12        -0.3009   -2.2139    5.3344 O.2       1 UNK        -0.4915 
     13 O13        -2.3278   -1.3539    6.5449 O.3       1 UNK        -0.5020 
     14 C14        -5.7094   -3.4152    2.5968 C.3       1 UNK         0.0871 
     15 C15        -7.2304   -3.6711    2.6956 C.3       1 UNK         0.1330 
     16 O16        -7.4646   -4.9305    3.3032 O.3       1 UNK        -0.6627 
     17 H17        -5.0969   -0.1501    5.0508 H         1 UNK         0.0691 
     18 H18        -5.2580   -0.6166    3.3788 H         1 UNK         0.0691 
     19 H19        -6.4649   -2.2027    4.9086 H         1 UNK         0.0706 
     20 H20        -5.0163   -2.4976    5.8067 H         1 UNK         0.0706 
     21 H21        -3.2479   -4.1979    3.0526 H         1 UNK         0.0706 
     22 H22        -3.0868   -3.6893    4.7045 H         1 UNK         0.0706 
     23 H23        -1.8960   -2.1429    3.1892 H         1 UNK         0.0691 
     24 H24        -3.3377   -1.8171    2.2690 H         1 UNK         0.0691 
     25 H25        -3.0822    0.5411    2.7596 H         1 UNK         0.0626 
     26 H26        -3.2802    1.1158    4.3931 H         1 UNK         0.0626 
     27 H27        -0.7407   -0.2714    3.3950 H         1 UNK         0.0883 
     28 H28        -1.0031    1.4195    3.5296 H         1 UNK         0.0883 
     29 H29        -1.3569    1.1436    6.0953 H         1 UNK         0.1467 
     30 H30         0.2668    0.8542    5.4926 H         1 UNK         0.1467 
     31 H31        -2.7523   -1.2544    5.6451 H         1 UNK         0.3980 
     32 H32        -5.2723   -4.1065    1.8725 H         1 UNK         0.0752 
     33 H33        -5.5785   -2.4451    2.1143 H         1 UNK         0.0752 
     34 H34        -7.6721   -3.6683    1.6978 H         1 UNK         0.0513 
     35 H35        -7.7359   -2.8780    3.2478 H         1 UNK         0.0513 
     36 H36        -6.8695   -4.9610    4.0710 H         1 UNK         0.4242 
@<TRIPOS>BOND
     1    1    2 1    
     2    1    6 1    
     3    1   17 1    
     4    1   18 1    
     5    2    3 1    
     6    2   19 1    
     7    2   20 1    
     8    3    4 1    
     9    3   14 1    
    10    4    5 1    
    11    4   21 1    
    12    4   22 1    
    13    5    6 1    
    14    5   23 1    
    15    5   24 1    
    16    6    7 1    
    17    7    8 1    
    18    7   25 1    
    19    7   26 1    
    20    8    9 1    
    21    8   27 1    
    22    8   28 1    
    23    9   10 1    
    24    9   29 1    
    25    9   30 1    
    26   10   11 2    
    27   10   12 2    
    28   10   13 1    
    29   13   31 1    
    30   14   15 1    
    31   14   32 1    
    32   14   33 1    
    33   15   16 1    
    34   15   34 1    
    35   15   35 1    
    36   16   36 1    
@<TRIPOS>SUBSTRUCTURE
     1 UNK         1 GROUP             0       ****    0 ROOT    
@<TRIPOS>MOLECULE
EPPS
36   36    1
SMALL
USER_CHARGES


@<TRIPOS>ATOM
      1 C1         -4.4620   -0.4082    4.3991 C.3       1 UNK         0.0986 
      2 C2         -5.4001   -1.6253    4.6260 C.3       1 UNK         0.1007 
      3 N3         -5.7495   -2.2558    3.3382 N.3       1 UNK        -0.7113 
      4 C4         -4.5194   -2.6501    2.6271 C.3       1 UNK         0.1007 
      5 C5         -3.5898   -1.4216    2.4247 C.3       1 UNK         0.0986 
      6 N6         -3.2128   -0.8267    3.7243 N.3       1 UNK        -0.7051 
      7 C7         -2.3060    0.3089    3.5111 C.3       1 UNK         0.1131 
      8 C8         -1.6075    0.7831    4.8064 C.3       1 UNK        -0.1197 
      9 C9         -0.5906   -0.2007    5.4512 C.3       1 UNK        -0.2881 
     10 S10        -1.3856   -1.6140    6.3995 S.3       1 UNK         1.0110 
     11 O11        -2.5769   -1.1412    7.1124 O.2       1 UNK        -0.4915 
     12 O12        -0.3509   -2.3904    7.0914 O.2       1 UNK        -0.4915 
     13 O13        -1.8874   -2.5016    5.1165 O.3       1 UNK        -0.5020 
     14 C14        -6.7399   -3.3458    3.4427 C.3       1 UNK         0.0871 
     15 C15        -6.5126   -4.4713    4.4881 C.3       1 UNK         0.1330 
     16 O16        -5.4205   -5.3194    4.1680 O.3       1 UNK        -0.6627 
     17 H17        -4.2472    0.0422    5.3688 H         1 UNK         0.0691 
     18 H18        -4.9841    0.3577    3.8199 H         1 UNK         0.0691 
     19 H19        -6.3059   -1.2898    5.1350 H         1 UNK         0.0706 
     20 H20        -4.9113   -2.3349    5.2966 H         1 UNK         0.0706 
     21 H21        -4.7725   -3.0721    1.6524 H         1 UNK         0.0706 
     22 H22        -3.9735   -3.4246    3.1666 H         1 UNK         0.0706 
     23 H23        -2.6956   -1.7460    1.8879 H         1 UNK         0.0691 
     24 H24        -4.0812   -0.6870    1.7814 H         1 UNK         0.0691 
     25 H25        -1.5214    0.0082    2.8121 H         1 UNK         0.0626 
     26 H26        -2.8261    1.1432    3.0328 H         1 UNK         0.0626 
     27 H27        -1.0537    1.6845    4.5380 H         1 UNK         0.0883 
     28 H28        -2.3338    1.1352    5.5398 H         1 UNK         0.0883 
     29 H29         0.0312    0.3085    6.1841 H         1 UNK         0.1467 
     30 H30         0.0708   -0.6598    4.7198 H         1 UNK         0.1467 
     31 H31        -2.4444   -1.8796    4.5656 H         1 UNK         0.3980 
     32 H32        -7.0482   -3.7566    2.4791 H         1 UNK         0.0752 
     33 H33        -7.6575   -2.8450    3.7586 H         1 UNK         0.0752 
     34 H34        -6.4056   -4.0655    5.4951 H         1 UNK         0.0513 
     35 H35        -7.4118   -5.0884    4.5290 H         1 UNK         0.0513 
     36 H36        -4.6065   -4.8165    4.3132 H         1 UNK         0.4242 
@<TRIPOS>BOND
     1    1    2 1    
     2    1    6 1    
     3    1   17 1    
     4    1   18 1    
     5    2    3 1    
     6    2   19 1    
     7    2   20 1    
     8    3    4 1    
     9    3   14 1    
    10    4    5 1    
    11    4   21 1    
    12    4   22 1    
    13    5    6 1    
    14    5   23 1    
    15    5   24 1    
    16    6    7 1    
    17    7    8 1    
    18    7   25 1    
    19    7   26 1    
    20    8    9 1    
    21    8   27 1    
    22    8   28 1    
    23    9   10 1    
    24    9   29 1    
    25    9   30 1    
    26   10   11 2    
    27   10   12 2    
    28   10   13 1    
    29   13   31 1    
    30   14   15 1    
    31   14   32 1    
    32   14   33 1    
    33   15   16 1    
    34   15   34 1    
    35   15   35 1    
    36   16   36 1    
@<TRIPOS>SUBSTRUCTURE
     1 UNK         1 GROUP             0       ****    0 ROOT    
@<TRIPOS>MOLECULE
EPPS
36   36    1
SMALL
USER_CHARGES


@<TRIPOS>ATOM
      1 C1         -4.1801   -0.7108    4.4350 C.3       1 UNK         0.0986 
      2 C2         -4.8533   -2.1013    4.6004 C.3       1 UNK         0.1007 
      3 N3         -5.0362   -2.7578    3.2879 N.3       1 UNK        -0.7113 
      4 C4         -3.7116   -2.8740    2.6451 C.3       1 UNK         0.1007 
      5 C5         -3.0443   -1.4798    2.4894 C.3       1 UNK         0.0986 
      6 N6         -2.8467   -0.8452    3.8087 N.3       1 UNK        -0.7051 
      7 C7         -2.1916    0.4591    3.6438 C.3       1 UNK         0.1131 
      8 C8         -1.6614    1.0491    4.9712 C.3       1 UNK        -0.1197 
      9 C9         -0.4807    0.2963    5.6471 C.3       1 UNK        -0.2881 
     10 S10        -0.9835   -1.2792    6.5378 S.3       1 UNK         1.0110 
     11 O11        -2.2768   -1.0957    7.2047 O.2       1 UNK        -0.4915 
     12 O12         0.1682   -1.8273    7.2626 O.2       1 UNK        -0.4915 
     13 O13        -1.2265   -2.2226    5.2202 O.3       1 UNK        -0.5020 
     14 C14        -5.6590   -4.0908    3.3958 C.3       1 UNK         0.0871 
     15 C15        -7.1390   -4.0155    3.8368 C.3       1 UNK         0.1330 
     16 O16        -7.7089   -5.3154    3.8454 O.3       1 UNK        -0.6627 
     17 H17        -4.1006   -0.2511    5.4207 H         1 UNK         0.0691 
     18 H18        -4.8268   -0.0545    3.8471 H         1 UNK         0.0691 
     19 H19        -5.8153   -1.9492    5.0908 H         1 UNK         0.0706 
     20 H20        -4.2603   -2.7245    5.2743 H         1 UNK         0.0706 
     21 H21        -3.8163   -3.3215    1.6544 H         1 UNK         0.0706 
     22 H22        -3.0549   -3.5383    3.2126 H         1 UNK         0.0706 
     23 H23        -2.0827   -1.6072    1.9874 H         1 UNK         0.0691 
     24 H24        -3.6500   -0.8495    1.8331 H         1 UNK         0.0691 
     25 H25        -1.3337    0.3409    2.9770 H         1 UNK         0.0626 
     26 H26        -2.8554    1.1735    3.1496 H         1 UNK         0.0626 
     27 H27        -1.3065    2.0539    4.7353 H         1 UNK         0.0883 
     28 H28        -2.4736    1.2208    5.6785 H         1 UNK         0.0883 
     29 H29        -0.0165    0.9115    6.4148 H         1 UNK         0.1467 
     30 H30         0.2948    0.0110    4.9398 H         1 UNK         0.1467 
     31 H31        -1.8927   -1.7299    4.6603 H         1 UNK         0.3980 
     32 H32        -5.0796   -4.6796    4.1113 H         1 UNK         0.0752 
     33 H33        -5.6223   -4.5427    2.4018 H         1 UNK         0.0752 
     34 H34        -7.7080   -3.3746    3.1602 H         1 UNK         0.0513 
     35 H35        -7.2388   -3.5897    4.8359 H         1 UNK         0.0513 
     36 H36        -8.6382   -5.2355    4.1131 H         1 UNK         0.4242 
@<TRIPOS>BOND
     1    1    2 1    
     2    1    6 1    
     3    1   17 1    
     4    1   18 1    
     5    2    3 1    
     6    2   19 1    
     7    2   20 1    
     8    3    4 1    
     9    3   14 1    
    10    4    5 1    
    11    4   21 1    
    12    4   22 1    
    13    5    6 1    
    14    5   23 1    
    15    5   24 1    
    16    6    7 1    
    17    7    8 1    
    18    7   25 1    
    19    7   26 1    
    20    8    9 1    
    21    8   27 1    
    22    8   28 1    
    23    9   10 1    
    24    9   29 1    
    25    9   30 1    
    26   10   11 2    
    27   10   12 2    
    28   10   13 1    
    29   13   31 1    
    30   14   15 1    
    31   14   32 1    
    32   14   33 1    
    33   15   16 1    
    34   15   34 1    
    35   15   35 1    
    36   16   36 1    
@<TRIPOS>SUBSTRUCTURE
     1 UNK         1 GROUP             0       ****    0 ROOT    
@<TRIPOS>MOLECULE
EPPS
36   36    1
SMALL
USER_CHARGES


@<TRIPOS>ATOM
      1 C1         -4.5657   -0.5217    4.0540 C.3       1 UNK         0.0986 
      2 C2         -5.2969   -1.8609    4.3485 C.3       1 UNK         0.1007 
      3 N3         -4.9228   -2.8954    3.3599 N.3       1 UNK        -0.7113 
      4 C4         -3.4558   -3.0600    3.4014 C.3       1 UNK         0.1007 
      5 C5         -2.7374   -1.7153    3.1052 C.3       1 UNK         0.0986 
      6 N6         -3.1002   -0.6979    4.1159 N.3       1 UNK        -0.7051 
      7 C7         -2.4303    0.5837    3.8586 C.3       1 UNK         0.1131 
      8 C8         -0.9255    0.5686    4.2135 C.3       1 UNK        -0.1197 
      9 C9         -0.5652    0.4314    5.7198 C.3       1 UNK        -0.2881 
     10 S10        -0.7489   -1.3107    6.3979 S.3       1 UNK         1.0110 
     11 O11        -0.2436   -1.3622    7.7741 O.2       1 UNK        -0.4915 
     12 O12        -0.3171   -2.2934    5.3985 O.2       1 UNK        -0.4915 
     13 O13        -2.3851   -1.3578    6.4754 O.3       1 UNK        -0.5020 
     14 C14        -5.5794   -4.1924    3.6116 C.3       1 UNK         0.0871 
     15 C15        -7.1021   -4.1429    3.3484 C.3       1 UNK         0.1330 
     16 O16        -7.6671   -5.4327    3.5269 O.3       1 UNK        -0.6627 
     17 H17        -4.8844    0.2190    4.7907 H         1 UNK         0.0691 
     18 H18        -4.8770   -0.1358    3.0797 H         1 UNK         0.0691 
     19 H19        -6.3697   -1.6687    4.3147 H         1 UNK         0.0706 
     20 H20        -5.0759   -2.1906    5.3667 H         1 UNK         0.0706 
     21 H21        -3.1417   -3.7932    2.6556 H         1 UNK         0.0706 
     22 H22        -3.1292   -3.4493    4.3691 H         1 UNK         0.0706 
     23 H23        -1.6619   -1.8957    3.1049 H         1 UNK         0.0691 
     24 H24        -2.9875   -1.3761    2.0968 H         1 UNK         0.0691 
     25 H25        -2.5725    0.9011    2.8221 H         1 UNK         0.0626 
     26 H26        -2.8997    1.3565    4.4727 H         1 UNK         0.0626 
     27 H27        -0.3859   -0.1643    3.6125 H         1 UNK         0.0883 
     28 H28        -0.5253    1.5260    3.8751 H         1 UNK         0.0883 
     29 H29        -1.1729    1.0707    6.3565 H         1 UNK         0.1467 
     30 H30         0.4774    0.6874    5.8948 H         1 UNK         0.1467 
     31 H31        -2.7009   -1.1437    5.5510 H         1 UNK         0.3980 
     32 H32        -5.3829   -4.4771    4.6483 H         1 UNK         0.0752 
     33 H33        -5.1375   -4.9143    2.9207 H         1 UNK         0.0752 
     34 H34        -7.6041   -3.4510    4.0258 H         1 UNK         0.0513 
     35 H35        -7.3041   -3.7958    2.3330 H         1 UNK         0.0513 
     36 H36        -8.6184   -5.3731    3.3445 H         1 UNK         0.4242 
@<TRIPOS>BOND
     1    1    2 1    
     2    1    6 1    
     3    1   17 1    
     4    1   18 1    
     5    2    3 1    
     6    2   19 1    
     7    2   20 1    
     8    3    4 1    
     9    3   14 1    
    10    4    5 1    
    11    4   21 1    
    12    4   22 1    
    13    5    6 1    
    14    5   23 1    
    15    5   24 1    
    16    6    7 1    
    17    7    8 1    
    18    7   25 1    
    19    7   26 1    
    20    8    9 1    
    21    8   27 1    
    22    8   28 1    
    23    9   10 1    
    24    9   29 1    
    25    9   30 1    
    26   10   11 2    
    27   10   12 2    
    28   10   13 1    
    29   13   31 1    
    30   14   15 1    
    31   14   32 1    
    32   14   33 1    
    33   15   16 1    
    34   15   34 1    
    35   15   35 1    
    36   16   36 1    
@<TRIPOS>SUBSTRUCTURE
     1 UNK         1 GROUP             0       ****    0 ROOT    
@<TRIPOS>MOLECULE
EPPS
36   36    1
SMALL
USER_CHARGES


@<TRIPOS>ATOM
      1 C1         -4.3403   -0.9797    3.9642 C.3       1 UNK         0.0986 
      2 C2         -5.1545   -2.2908    4.1462 C.3       1 UNK         0.1007 
      3 N3         -4.8994   -3.2348    3.0390 N.3       1 UNK        -0.7113 
      4 C4         -3.4476   -3.5011    2.9928 C.3       1 UNK         0.1007 
      5 C5         -2.6455   -2.1847    2.8022 C.3       1 UNK         0.0986 
      6 N6         -2.8886   -1.2591    3.9275 N.3       1 UNK        -0.7051 
      7 C7         -2.0930   -0.0371    3.7466 C.3       1 UNK         0.1131 
      8 C8         -2.1915    0.9330    4.9487 C.3       1 UNK        -0.1197 
      9 C9         -2.0633    0.3372    6.3811 C.3       1 UNK        -0.2881 
     10 S10        -0.6920   -0.9312    6.5632 S.3       1 UNK         1.0110 
     11 O11        -0.4818   -1.2419    7.9814 O.2       1 UNK        -0.4915 
     12 O12         0.4374   -0.5916    5.6908 O.2       1 UNK        -0.4915 
     13 O13        -1.4817   -2.2067    5.8949 O.3       1 UNK        -0.5020 
     14 C14        -5.6318   -4.5058    3.2020 C.3       1 UNK         0.0871 
     15 C15        -7.1722   -4.4381    3.0427 C.3       1 UNK         0.1330 
     16 O16        -7.8383   -3.8958    4.1761 O.3       1 UNK        -0.6627 
     17 H17        -4.5793   -0.3119    4.7931 H         1 UNK         0.0691 
     18 H18        -4.6648   -0.4649    3.0564 H         1 UNK         0.0691 
     19 H19        -6.2097   -2.0195    4.1739 H         1 UNK         0.0706 
     20 H20        -4.9260   -2.7456    5.1131 H         1 UNK         0.0706 
     21 H21        -3.2177   -4.1718    2.1623 H         1 UNK         0.0706 
     22 H22        -3.1117   -4.0105    3.8996 H         1 UNK         0.0706 
     23 H23        -1.5826   -2.4279    2.7386 H         1 UNK         0.0691 
     24 H24        -2.9107   -1.7246    1.8467 H         1 UNK         0.0691 
     25 H25        -1.0443   -0.2943    3.5810 H         1 UNK         0.0626 
     26 H26        -2.4197    0.4807    2.8407 H         1 UNK         0.0626 
     27 H27        -1.3993    1.6726    4.8172 H         1 UNK         0.0883 
     28 H28        -3.1015    1.5293    4.8646 H         1 UNK         0.0883 
     29 H29        -2.9759   -0.1548    6.7092 H         1 UNK         0.1467 
     30 H30        -1.8357    1.1136    7.1081 H         1 UNK         0.1467 
     31 H31        -1.9874   -1.8512    5.1117 H         1 UNK         0.3980 
     32 H32        -5.3460   -5.0995    4.0734 H         1 UNK         0.0752 
     33 H33        -5.3089   -5.1294    2.3651 H         1 UNK         0.0752 
     34 H34        -7.4379   -3.8822    2.1413 H         1 UNK         0.0513 
     35 H35        -7.5544   -5.4478    2.8814 H         1 UNK         0.0513 
     36 H36        -8.7908   -3.8970    3.9941 H         1 UNK         0.4242 
@<TRIPOS>BOND
     1    1    2 1    
     2    1    6 1    
     3    1   17 1    
     4    1   18 1    
     5    2    3 1    
     6    2   19 1    
     7    2   20 1    
     8    3    4 1    
     9    3   14 1    
    10    4    5 1    
    11    4   21 1    
    12    4   22 1    
    13    5    6 1    
    14    5   23 1    
    15    5   24 1    
    16    6    7 1    
    17    7    8 1    
    18    7   25 1    
    19    7   26 1    
    20    8    9 1    
    21    8   27 1    
    22    8   28 1    
    23    9   10 1    
    24    9   29 1    
    25    9   30 1    
    26   10   11 2    
    27   10   12 2    
    28   10   13 1    
    29   13   31 1    
    30   14   15 1    
    31   14   32 1    
    32   14   33 1    
    33   15   16 1    
    34   15   34 1    
    35   15   35 1    
    36   16   36 1    
@<TRIPOS>SUBSTRUCTURE
     1 UNK         1 GROUP             0       ****    0 ROOT    
@<TRIPOS>MOLECULE
EPPS
36   36    1
SMALL
USER_CHARGES


@<TRIPOS>ATOM
      1 C1         -4.6984   -0.7863    5.5181 C.3       1 UNK         0.0986 
      2 C2         -5.3884   -2.1751    5.6028 C.3       1 UNK         0.1007 
      3 N3         -5.7972   -2.6460    4.2641 N.3       1 UNK        -0.7113 
      4 C4         -4.5912   -2.7018    3.4129 C.3       1 UNK         0.1007 
      5 C5         -3.8915   -1.3160    3.3403 C.3       1 UNK         0.0986 
      6 N6         -3.4803   -0.8597    4.6855 N.3       1 UNK        -0.7051 
      7 C7         -2.8235    0.4540    4.6486 C.3       1 UNK         0.1131 
      8 C8         -1.4679    0.4325    3.9014 C.3       1 UNK        -0.1197 
      9 C9         -0.4784   -0.7273    4.2159 C.3       1 UNK        -0.2881 
     10 S10        -0.3237   -1.1280    6.0429 S.3       1 UNK         1.0110 
     11 O11        -0.4736    0.0894    6.8475 O.2       1 UNK        -0.4915 
     12 O12         0.8026   -2.0420    6.2619 O.2       1 UNK        -0.4915 
     13 O13        -1.7030   -2.0067    6.1931 O.3       1 UNK        -0.5020 
     14 C14        -6.4648   -3.9570    4.3820 C.3       1 UNK         0.0871 
     15 C15        -7.1594   -4.4932    3.1041 C.3       1 UNK         0.1330 
     16 O16        -6.2544   -5.0274    2.1460 O.3       1 UNK        -0.6627 
     17 H17        -4.4438   -0.4590    6.5285 H         1 UNK         0.0691 
     18 H18        -5.4017   -0.0467    5.1263 H         1 UNK         0.0691 
     19 H19        -6.2629   -2.0901    6.2513 H         1 UNK         0.0706 
     20 H20        -4.7185   -2.8919    6.0847 H         1 UNK         0.0706 
     21 H21        -4.8612   -2.9856    2.3958 H         1 UNK         0.0706 
     22 H22        -3.8904   -3.4599    3.7706 H         1 UNK         0.0706 
     23 H23        -3.0230   -1.4063    2.6863 H         1 UNK         0.0691 
     24 H24        -4.5555   -0.5899    2.8647 H         1 UNK         0.0691 
     25 H25        -3.4854    1.1801    4.1688 H         1 UNK         0.0626 
     26 H26        -2.6646    0.8219    5.6649 H         1 UNK         0.0626 
     27 H27        -1.6410    0.5041    2.8264 H         1 UNK         0.0883 
     28 H28        -0.9695    1.3755    4.1342 H         1 UNK         0.0883 
     29 H29         0.5292   -0.4803    3.8891 H         1 UNK         0.1467 
     30 H30        -0.7584   -1.6564    3.7251 H         1 UNK         0.1467 
     31 H31        -2.3987   -1.5418    5.6495 H         1 UNK         0.3980 
     32 H32        -7.2895   -3.7945    5.0799 H         1 UNK         0.0752 
     33 H33        -5.8780   -4.7358    4.8745 H         1 UNK         0.0752 
     34 H34        -7.8539   -5.2863    3.3871 H         1 UNK         0.0513 
     35 H35        -7.7787   -3.7157    2.6524 H         1 UNK         0.0513 
     36 H36        -6.7708   -5.3438    1.3886 H         1 UNK         0.4242 
@<TRIPOS>BOND
     1    1    2 1    
     2    1    6 1    
     3    1   17 1    
     4    1   18 1    
     5    2    3 1    
     6    2   19 1    
     7    2   20 1    
     8    3    4 1    
     9    3   14 1    
    10    4    5 1    
    11    4   21 1    
    12    4   22 1    
    13    5    6 1    
    14    5   23 1    
    15    5   24 1    
    16    6    7 1    
    17    7    8 1    
    18    7   25 1    
    19    7   26 1    
    20    8    9 1    
    21    8   27 1    
    22    8   28 1    
    23    9   10 1    
    24    9   29 1    
    25    9   30 1    
    26   10   11 2    
    27   10   12 2    
    28   10   13 1    
    29   13   31 1    
    30   14   15 1    
    31   14   32 1    
    32   14   33 1    
    33   15   16 1    
    34   15   34 1    
    35   15   35 1    
    36   16   36 1    
@<TRIPOS>SUBSTRUCTURE
     1 UNK         1 GROUP             0       ****    0 ROOT    
@<TRIPOS>MOLECULE
EPPS
36   36    1
SMALL
USER_CHARGES


@<TRIPOS>ATOM
      1 C1         -4.3894   -0.3085    4.3371 C.3       1 UNK         0.0986 
      2 C2         -5.4978   -1.2908    4.8042 C.3       1 UNK         0.1007 
      3 N3         -5.7497   -2.3306    3.7860 N.3       1 UNK        -0.7113 
      4 C4         -4.4796   -3.0425    3.5376 C.3       1 UNK         0.1007 
      5 C5         -3.3653   -2.0577    3.0858 C.3       1 UNK         0.0986 
      6 N6         -3.1171   -1.0286    4.1165 N.3       1 UNK        -0.7051 
      7 C7         -2.0410   -0.1315    3.6738 C.3       1 UNK         0.1131 
      8 C8         -1.6281    0.8972    4.7543 C.3       1 UNK        -0.1197 
      9 C9         -1.4269    0.3859    6.2107 C.3       1 UNK        -0.2881 
     10 S10        -0.4841   -1.2324    6.3309 S.3       1 UNK         1.0110 
     11 O11         0.5188   -1.3200    5.2639 O.2       1 UNK        -0.4915 
     12 O12        -0.1237   -1.4999    7.7276 O.2       1 UNK        -0.4915 
     13 O13        -1.7233   -2.2386    5.9443 O.3       1 UNK        -0.5020 
     14 C14        -6.8197   -3.2332    4.2538 C.3       1 UNK         0.0871 
     15 C15        -7.3670   -4.2477    3.2173 C.3       1 UNK         0.1330 
     16 O16        -6.5076   -5.3600    3.0015 O.3       1 UNK        -0.6627 
     17 H17        -4.2671    0.4593    5.1025 H         1 UNK         0.0691 
     18 H18        -4.7103    0.2124    3.4315 H         1 UNK         0.0691 
     19 H19        -6.4111   -0.7218    4.9900 H         1 UNK         0.0706 
     20 H20        -5.2152   -1.7372    5.7610 H         1 UNK         0.0706 
     21 H21        -4.6093   -3.7769    2.7428 H         1 UNK         0.0706 
     22 H22        -4.1583   -3.5971    4.4225 H         1 UNK         0.0706 
     23 H23        -2.4522   -2.6265    2.8970 H         1 UNK         0.0691 
     24 H24        -3.6418   -1.6017    2.1316 H         1 UNK         0.0691 
     25 H25        -2.3572    0.4019    2.7733 H         1 UNK         0.0626 
     26 H26        -1.1639   -0.7140    3.3826 H         1 UNK         0.0626 
     27 H27        -0.6892    1.3414    4.4183 H         1 UNK         0.0883 
     28 H28        -2.3193    1.7415    4.7393 H         1 UNK         0.0883 
     29 H29        -2.3698    0.2259    6.7284 H         1 UNK         0.1467 
     30 H30        -0.8524    1.0982    6.7987 H         1 UNK         0.1467 
     31 H31        -2.2334   -1.7950    5.2105 H         1 UNK         0.3980 
     32 H32        -7.6723   -2.5814    4.4583 H         1 UNK         0.0752 
     33 H33        -6.6382   -3.7086    5.2205 H         1 UNK         0.0752 
     34 H34        -8.3264   -4.6297    3.5709 H         1 UNK         0.0513 
     35 H35        -7.5871   -3.7462    2.2728 H         1 UNK         0.0513 
     36 H36        -6.9275   -5.9423    2.3495 H         1 UNK         0.4242 
@<TRIPOS>BOND
     1    1    2 1    
     2    1    6 1    
     3    1   17 1    
     4    1   18 1    
     5    2    3 1    
     6    2   19 1    
     7    2   20 1    
     8    3    4 1    
     9    3   14 1    
    10    4    5 1    
    11    4   21 1    
    12    4   22 1    
    13    5    6 1    
    14    5   23 1    
    15    5   24 1    
    16    6    7 1    
    17    7    8 1    
    18    7   25 1    
    19    7   26 1    
    20    8    9 1    
    21    8   27 1    
    22    8   28 1    
    23    9   10 1    
    24    9   29 1    
    25    9   30 1    
    26   10   11 2    
    27   10   12 2    
    28   10   13 1    
    29   13   31 1    
    30   14   15 1    
    31   14   32 1    
    32   14   33 1    
    33   15   16 1    
    34   15   34 1    
    35   15   35 1    
    36   16   36 1    
@<TRIPOS>SUBSTRUCTURE
     1 UNK         1 GROUP             0       ****    0 ROOT    
@<TRIPOS>MOLECULE
EPPS
36   36    1
SMALL
USER_CHARGES


@<TRIPOS>ATOM
      1 C1         -4.6489   -1.0649    4.5739 C.3       1 UNK         0.0986 
      2 C2         -5.1704   -2.5157    4.3768 C.3       1 UNK         0.1007 
      3 N3         -5.0312   -2.9444    2.9702 N.3       1 UNK        -0.7113 
      4 C4         -3.6078   -2.8228    2.5955 C.3       1 UNK         0.1007 
      5 C5         -3.1019   -1.3672    2.7880 C.3       1 UNK         0.0986 
      6 N6         -3.2224   -0.9590    4.2039 N.3       1 UNK        -0.7051 
      7 C7         -2.7519    0.4147    4.4277 C.3       1 UNK         0.1131 
      8 C8         -1.2317    0.5806    4.1876 C.3       1 UNK        -0.1197 
      9 C9         -0.2755   -0.4902    4.7894 C.3       1 UNK        -0.2881 
     10 S10        -0.6971   -0.9919    6.5481 S.3       1 UNK         1.0110 
     11 O11        -1.2519    0.1482    7.2857 O.2       1 UNK        -0.4915 
     12 O12         0.3903   -1.7981    7.1135 O.2       1 UNK        -0.4915 
     13 O13        -1.9321   -2.0155    6.1951 O.3       1 UNK        -0.5020 
     14 C14        -5.4830   -4.3332    2.7571 C.3       1 UNK         0.0871 
     15 C15        -7.0066   -4.5889    2.8850 C.3       1 UNK         0.1330 
     16 O16        -7.4651   -4.6340    4.2303 O.3       1 UNK        -0.6627 
     17 H17        -4.7861   -0.7837    5.6203 H         1 UNK         0.0691 
     18 H18        -5.2604   -0.3716    3.9905 H         1 UNK         0.0691 
     19 H19        -6.2196   -2.5293    4.6720 H         1 UNK         0.0706 
     20 H20        -4.6498   -3.1996    5.0514 H         1 UNK         0.0706 
     21 H21        -3.4725   -3.1025    1.5487 H         1 UNK         0.0706 
     22 H22        -2.9875   -3.5086    3.1782 H         1 UNK         0.0706 
     23 H23        -2.0614   -1.3203    2.4632 H         1 UNK         0.0691 
     24 H24        -3.6562   -0.6901    2.1333 H         1 UNK         0.0691 
     25 H25        -3.2952    1.0986    3.7700 H         1 UNK         0.0626 
     26 H26        -2.9884    0.7303    5.4465 H         1 UNK         0.0626 
     27 H27        -1.0408    0.7045    3.1204 H         1 UNK         0.0883 
     28 H28        -0.9557    1.5523    4.6017 H         1 UNK         0.0883 
     29 H29         0.7466   -0.1207    4.8327 H         1 UNK         0.1467 
     30 H30        -0.2624   -1.4088    4.2076 H         1 UNK         0.1467 
     31 H31        -2.4554   -1.5892    5.4603 H         1 UNK         0.3980 
     32 H32        -4.9044   -5.0969    3.2819 H         1 UNK         0.0752 
     33 H33        -5.2692   -4.5438    1.7066 H         1 UNK         0.0752 
     34 H34        -7.5670   -3.8450    2.3152 H         1 UNK         0.0513 
     35 H35        -7.2433   -5.5470    2.4185 H         1 UNK         0.0513 
     36 H36        -8.4197   -4.8046    4.2171 H         1 UNK         0.4242 
@<TRIPOS>BOND
     1    1    2 1    
     2    1    6 1    
     3    1   17 1    
     4    1   18 1    
     5    2    3 1    
     6    2   19 1    
     7    2   20 1    
     8    3    4 1    
     9    3   14 1    
    10    4    5 1    
    11    4   21 1    
    12    4   22 1    
    13    5    6 1    
    14    5   23 1    
    15    5   24 1    
    16    6    7 1    
    17    7    8 1    
    18    7   25 1    
    19    7   26 1    
    20    8    9 1    
    21    8   27 1    
    22    8   28 1    
    23    9   10 1    
    24    9   29 1    
    25    9   30 1    
    26   10   11 2    
    27   10   12 2    
    28   10   13 1    
    29   13   31 1    
    30   14   15 1    
    31   14   32 1    
    32   14   33 1    
    33   15   16 1    
    34   15   34 1    
    35   15   35 1    
    36   16   36 1    
@<TRIPOS>SUBSTRUCTURE
     1 UNK         1 GROUP             0       ****    0 ROOT    
@<TRIPOS>MOLECULE
EPPS
36   36    1
SMALL
USER_CHARGES


@<TRIPOS>ATOM
      1 C1         -3.4143   -1.9869    3.1292 C.3       1 UNK         0.0986 
      2 C2         -4.1244   -3.2853    3.6024 C.3       1 UNK         0.1007 
      3 N3         -5.4823   -2.9880    4.1067 N.3       1 UNK        -0.7113 
      4 C4         -5.3621   -2.0104    5.2058 C.3       1 UNK         0.1007 
      5 C5         -4.6476   -0.7185    4.7220 C.3       1 UNK         0.0986 
      6 N6         -3.2815   -1.0262    4.2432 N.3       1 UNK        -0.7051 
      7 C7         -2.5871    0.1871    3.7861 C.3       1 UNK         0.1131 
      8 C8         -2.0008    0.9950    4.9675 C.3       1 UNK        -0.1197 
      9 C9         -0.6067    0.5411    5.4928 C.3       1 UNK        -0.2881 
     10 S10        -0.4273   -1.2986    5.8528 S.3       1 UNK         1.0110 
     11 O11         0.4823   -1.4930    6.9873 O.2       1 UNK        -0.4915 
     12 O12        -0.2372   -2.0378    4.6007 O.2       1 UNK        -0.4915 
     13 O13        -1.9512   -1.5937    6.3783 O.3       1 UNK        -0.5020 
     14 C14        -6.1890   -4.1917    4.5871 C.3       1 UNK         0.0871 
     15 C15        -6.5633   -5.1914    3.4689 C.3       1 UNK         0.1330 
     16 O16        -7.4221   -4.5608    2.5335 O.3       1 UNK        -0.6627 
     17 H17        -3.9611   -1.5479    2.2908 H         1 UNK         0.0691 
     18 H18        -2.4267   -2.2511    2.7448 H         1 UNK         0.0691 
     19 H19        -3.5199   -3.7820    4.3653 H         1 UNK         0.0706 
     20 H20        -4.1731   -3.9705    2.7552 H         1 UNK         0.0706 
     21 H21        -4.8236   -2.4365    6.0561 H         1 UNK         0.0706 
     22 H22        -6.3546   -1.7434    5.5747 H         1 UNK         0.0706 
     23 H23        -5.2409   -0.2419    3.9375 H         1 UNK         0.0691 
     24 H24        -4.6206   -0.0092    5.5503 H         1 UNK         0.0691 
     25 H25        -1.7488   -0.1069    3.1493 H         1 UNK         0.0626 
     26 H26        -3.2261    0.8141    3.1587 H         1 UNK         0.0626 
     27 H27        -1.9336    2.0432    4.6713 H         1 UNK         0.0883 
     28 H28        -2.6851    0.9759    5.8164 H         1 UNK         0.0883 
     29 H29        -0.3740    1.0361    6.4331 H         1 UNK         0.1467 
     30 H30         0.1950    0.7847    4.7993 H         1 UNK         0.1467 
     31 H31        -2.5267   -1.4246    5.5799 H         1 UNK         0.3980 
     32 H32        -7.0734   -3.9781    5.1921 H         1 UNK         0.0752 
     33 H33        -5.5355   -4.7180    5.2875 H         1 UNK         0.0752 
     34 H34        -5.6771   -5.5867    2.9709 H         1 UNK         0.0513 
     35 H35        -7.0745   -6.0544    3.8987 H         1 UNK         0.0513 
     36 H36        -7.0212   -3.6925    2.3612 H         1 UNK         0.4242 
@<TRIPOS>BOND
     1    1    2 1    
     2    1    6 1    
     3    1   17 1    
     4    1   18 1    
     5    2    3 1    
     6    2   19 1    
     7    2   20 1    
     8    3    4 1    
     9    3   14 1    
    10    4    5 1    
    11    4   21 1    
    12    4   22 1    
    13    5    6 1    
    14    5   23 1    
    15    5   24 1    
    16    6    7 1    
    17    7    8 1    
    18    7   25 1    
    19    7   26 1    
    20    8    9 1    
    21    8   27 1    
    22    8   28 1    
    23    9   10 1    
    24    9   29 1    
    25    9   30 1    
    26   10   11 2    
    27   10   12 2    
    28   10   13 1    
    29   13   31 1    
    30   14   15 1    
    31   14   32 1    
    32   14   33 1    
    33   15   16 1    
    34   15   34 1    
    35   15   35 1    
    36   16   36 1    
@<TRIPOS>SUBSTRUCTURE
     1 UNK         1 GROUP             0       ****    0 ROOT    
@<TRIPOS>MOLECULE
EPPS
36   36    1
SMALL
USER_CHARGES


@<TRIPOS>ATOM
      1 C1         -3.6893   -1.6009    3.1141 C.3       1 UNK         0.0986 
      2 C2         -4.1843   -3.0629    3.2953 C.3       1 UNK         0.1007 
      3 N3         -5.4139   -3.1034    4.1153 N.3       1 UNK        -0.7113 
      4 C4         -5.1212   -2.4701    5.4161 C.3       1 UNK         0.1007 
      5 C5         -4.6239   -1.0115    5.2229 C.3       1 UNK         0.0986 
      6 N6         -3.3816   -0.9852    4.4243 N.3       1 UNK        -0.7051 
      7 C7         -2.9085    0.3987    4.2692 C.3       1 UNK         0.1131 
      8 C8         -1.4128    0.4566    3.8801 C.3       1 UNK        -0.1197 
      9 C9         -0.3888    0.3665    5.0500 C.3       1 UNK        -0.2881 
     10 S10        -0.6572   -1.0467    6.2653 S.3       1 UNK         1.0110 
     11 O11         0.6383   -1.5223    6.7631 O.2       1 UNK        -0.4915 
     12 O12        -1.7421   -0.7105    7.1928 O.2       1 UNK        -0.4915 
     13 O13        -1.2298   -2.1663    5.2145 O.3       1 UNK        -0.5020 
     14 C14        -5.9109   -4.4764    4.3322 C.3       1 UNK         0.0871 
     15 C15        -6.4525   -5.1603    3.0559 C.3       1 UNK         0.1330 
     16 O16        -7.5401   -4.4122    2.5388 O.3       1 UNK        -0.6627 
     17 H17        -4.4437   -1.0215    2.5759 H         1 UNK         0.0691 
     18 H18        -2.8072   -1.6134    2.4726 H         1 UNK         0.0691 
     19 H19        -3.3933   -3.6719    3.7399 H         1 UNK         0.0706 
     20 H20        -4.3723   -3.4800    2.3052 H         1 UNK         0.0706 
     21 H21        -4.3778   -3.0431    5.9761 H         1 UNK         0.0706 
     22 H22        -6.0227   -2.4531    6.0321 H         1 UNK         0.0706 
     23 H23        -5.4079   -0.4094    4.7564 H         1 UNK         0.0691 
     24 H24        -4.4451   -0.5717    6.2064 H         1 UNK         0.0691 
     25 H25        -3.5214    0.9653    3.5632 H         1 UNK         0.0626 
     26 H26        -3.0124    0.9147    5.2271 H         1 UNK         0.0626 
     27 H27        -1.1717   -0.3446    3.1805 H         1 UNK         0.0883 
     28 H28        -1.2322    1.3841    3.3340 H         1 UNK         0.0883 
     29 H29        -0.3688    1.2722    5.6519 H         1 UNK         0.1467 
     30 H30         0.6180    0.2194    4.6649 H         1 UNK         0.1467 
     31 H31        -2.0937   -1.7843    4.8905 H         1 UNK         0.3980 
     32 H32        -6.6522   -4.5616    5.1304 H         1 UNK         0.0752 
     33 H33        -5.0834   -5.0875    4.7015 H         1 UNK         0.0752 
     34 H34        -5.6733   -5.2767    2.3015 H         1 UNK         0.0513 
     35 H35        -6.7928   -6.1698    3.2921 H         1 UNK         0.0513 
     36 H36        -7.2503   -3.4851    2.5651 H         1 UNK         0.4242 
@<TRIPOS>BOND
     1    1    2 1    
     2    1    6 1    
     3    1   17 1    
     4    1   18 1    
     5    2    3 1    
     6    2   19 1    
     7    2   20 1    
     8    3    4 1    
     9    3   14 1    
    10    4    5 1    
    11    4   21 1    
    12    4   22 1    
    13    5    6 1    
    14    5   23 1    
    15    5   24 1    
    16    6    7 1    
    17    7    8 1    
    18    7   25 1    
    19    7   26 1    
    20    8    9 1    
    21    8   27 1    
    22    8   28 1    
    23    9   10 1    
    24    9   29 1    
    25    9   30 1    
    26   10   11 2    
    27   10   12 2    
    28   10   13 1    
    29   13   31 1    
    30   14   15 1    
    31   14   32 1    
    32   14   33 1    
    33   15   16 1    
    34   15   34 1    
    35   15   35 1    
    36   16   36 1    
@<TRIPOS>SUBSTRUCTURE
     1 UNK         1 GROUP             0       ****    0 ROOT    
@<TRIPOS>MOLECULE
EPPS
36   36    1
SMALL
USER_CHARGES


@<TRIPOS>ATOM
      1 C1         -4.0210   -1.7953    5.4047 C.3       1 UNK         0.0986 
      2 C2         -5.4617   -1.7390    4.8182 C.3       1 UNK         0.1007 
      3 N3         -5.6646   -2.7946    3.8075 N.3       1 UNK        -0.7113 
      4 C4         -4.6504   -2.6309    2.7449 C.3       1 UNK         0.1007 
      5 C5         -3.2122   -2.6916    3.3379 C.3       1 UNK         0.0986 
      6 N6         -2.9692   -1.6612    4.3706 N.3       1 UNK        -0.7051 
      7 C7         -2.8541   -0.3117    3.7946 C.3       1 UNK         0.1131 
      8 C8         -2.2536    0.7269    4.7696 C.3       1 UNK        -0.1197 
      9 C9         -0.7562    0.5456    5.1457 C.3       1 UNK        -0.2881 
     10 S10        -0.4383   -0.8217    6.3931 S.3       1 UNK         1.0110 
     11 O11        -1.5016   -0.8451    7.4031 O.2       1 UNK        -0.4915 
     12 O12         0.9752   -0.8148    6.7858 O.2       1 UNK        -0.4915 
     13 O13        -0.6623   -2.1019    5.3947 O.3       1 UNK        -0.5020 
     14 C14        -7.0469   -2.7303    3.2931 C.3       1 UNK         0.0871 
     15 C15        -7.4425   -3.9253    2.3956 C.3       1 UNK         0.1330 
     16 O16        -7.3379   -5.1310    3.1341 O.3       1 UNK        -0.6627 
     17 H17        -3.8859   -2.7410    5.9340 H         1 UNK         0.0691 
     18 H18        -3.9165   -1.0273    6.1715 H         1 UNK         0.0691 
     19 H19        -5.6658   -0.7487    4.4053 H         1 UNK         0.0706 
     20 H20        -6.1717   -1.8752    5.6367 H         1 UNK         0.0706 
     21 H21        -4.7969   -1.6973    2.1974 H         1 UNK         0.0706 
     22 H22        -4.7410   -3.4307    2.0090 H         1 UNK         0.0706 
     23 H23        -3.0382   -3.6819    3.7646 H         1 UNK         0.0691 
     24 H24        -2.4832   -2.5958    2.5304 H         1 UNK         0.0691 
     25 H25        -2.1908   -0.3617    2.9276 H         1 UNK         0.0626 
     26 H26        -3.8113    0.0460    3.4100 H         1 UNK         0.0626 
     27 H27        -2.3439    1.6956    4.2747 H         1 UNK         0.0883 
     28 H28        -2.8704    0.8323    5.6626 H         1 UNK         0.0883 
     29 H29        -0.3615    1.4443    5.6146 H         1 UNK         0.1467 
     30 H30        -0.1310    0.3217    4.2842 H         1 UNK         0.1467 
     31 H31        -1.5764   -1.9821    5.0090 H         1 UNK         0.3980 
     32 H32        -7.1479   -1.8243    2.6904 H         1 UNK         0.0752 
     33 H33        -7.8054   -2.5938    4.0677 H         1 UNK         0.0752 
     34 H34        -6.8286   -3.9717    1.4953 H         1 UNK         0.0513 
     35 H35        -8.4707   -3.8053    2.0502 H         1 UNK         0.0513 
     36 H36        -6.4888   -5.0723    3.6031 H         1 UNK         0.4242 
@<TRIPOS>BOND
     1    1    2 1    
     2    1    6 1    
     3    1   17 1    
     4    1   18 1    
     5    2    3 1    
     6    2   19 1    
     7    2   20 1    
     8    3    4 1    
     9    3   14 1    
    10    4    5 1    
    11    4   21 1    
    12    4   22 1    
    13    5    6 1    
    14    5   23 1    
    15    5   24 1    
    16    6    7 1    
    17    7    8 1    
    18    7   25 1    
    19    7   26 1    
    20    8    9 1    
    21    8   27 1    
    22    8   28 1    
    23    9   10 1    
    24    9   29 1    
    25    9   30 1    
    26   10   11 2    
    27   10   12 2    
    28   10   13 1    
    29   13   31 1    
    30   14   15 1    
    31   14   32 1    
    32   14   33 1    
    33   15   16 1    
    34   15   34 1    
    35   15   35 1    
    36   16   36 1    
@<TRIPOS>SUBSTRUCTURE
     1 UNK         1 GROUP             0       ****    0 ROOT    
@<TRIPOS>MOLECULE
EPPS
36   36    1
SMALL
USER_CHARGES


@<TRIPOS>ATOM
      1 C1         -4.6229   -1.2291    4.9634 C.3       1 UNK         0.0986 
      2 C2         -5.0602   -2.7123    4.8086 C.3       1 UNK         0.1007 
      3 N3         -5.0799   -3.1102    3.3855 N.3       1 UNK        -0.7113 
      4 C4         -3.7354   -2.8817    2.8214 C.3       1 UNK         0.1007 
      5 C5         -3.3093   -1.3967    2.9821 C.3       1 UNK         0.0986 
      6 N6         -3.2689   -1.0166    4.4107 N.3       1 UNK        -0.7051 
      7 C7         -2.8698    0.3847    4.6008 C.3       1 UNK         0.1131 
      8 C8         -1.4109    0.6635    4.1650 C.3       1 UNK        -0.1197 
      9 C9         -0.3099   -0.3426    4.6110 C.3       1 UNK        -0.2881 
     10 S10        -0.4556   -0.8943    6.3989 S.3       1 UNK         1.0110 
     11 O11        -0.9838    0.1943    7.2282 O.2       1 UNK        -0.4915 
     12 O12         0.7511   -1.6275    6.7970 O.2       1 UNK        -0.4915 
     13 O13        -1.6530   -1.9991    6.1915 O.3       1 UNK        -0.5020 
     14 C14        -5.4715   -4.5197    3.1866 C.3       1 UNK         0.0871 
     15 C15        -6.9162   -4.8890    3.6110 C.3       1 UNK         0.1330 
     16 O16        -7.8965   -4.2653    2.7908 O.3       1 UNK        -0.6627 
     17 H17        -4.6400   -0.9683    6.0239 H         1 UNK         0.0691 
     18 H18        -5.3539   -0.5768    4.4784 H         1 UNK         0.0691 
     19 H19        -6.0545   -2.8153    5.2444 H         1 UNK         0.0706 
     20 H20        -4.3987   -3.3590    5.3902 H         1 UNK         0.0706 
     21 H21        -3.7314   -3.1337    1.7589 H         1 UNK         0.0706 
     22 H22        -2.9943   -3.5313    3.2938 H         1 UNK         0.0706 
     23 H23        -2.3267   -1.2712    2.5249 H         1 UNK         0.0691 
     24 H24        -3.9902   -0.7513    2.4215 H         1 UNK         0.0691 
     25 H25        -3.5428    1.0360    4.0365 H         1 UNK         0.0626 
     26 H26        -2.9892    0.6691    5.6488 H         1 UNK         0.0626 
     27 H27        -1.3736    0.8143    3.0849 H         1 UNK         0.0883 
     28 H28        -1.1509    1.6474    4.5603 H         1 UNK         0.0883 
     29 H29         0.6804    0.0992    4.5258 H         1 UNK         0.1467 
     30 H30        -0.3108   -1.2508    4.0130 H         1 UNK         0.1467 
     31 H31        -2.2977   -1.6029    5.5413 H         1 UNK         0.3980 
     32 H32        -4.8052   -5.1293    3.8023 H         1 UNK         0.0752 
     33 H33        -5.2805   -4.8978    2.1797 H         1 UNK         0.0752 
     34 H34        -7.0410   -5.9701    3.5270 H         1 UNK         0.0513 
     35 H35        -7.0983   -4.6650    4.6627 H         1 UNK         0.0513 
     36 H36        -8.7721   -4.5320    3.1113 H         1 UNK         0.4242 
@<TRIPOS>BOND
     1    1    2 1    
     2    1    6 1    
     3    1   17 1    
     4    1   18 1    
     5    2    3 1    
     6    2   19 1    
     7    2   20 1    
     8    3    4 1    
     9    3   14 1    
    10    4    5 1    
    11    4   21 1    
    12    4   22 1    
    13    5    6 1    
    14    5   23 1    
    15    5   24 1    
    16    6    7 1    
    17    7    8 1    
    18    7   25 1    
    19    7   26 1    
    20    8    9 1    
    21    8   27 1    
    22    8   28 1    
    23    9   10 1    
    24    9   29 1    
    25    9   30 1    
    26   10   11 2    
    27   10   12 2    
    28   10   13 1    
    29   13   31 1    
    30   14   15 1    
    31   14   32 1    
    32   14   33 1    
    33   15   16 1    
    34   15   34 1    
    35   15   35 1    
    36   16   36 1    
@<TRIPOS>SUBSTRUCTURE
     1 UNK         1 GROUP             0       ****    0 ROOT    
@<TRIPOS>MOLECULE
EPPS
36   36    1
SMALL
USER_CHARGES


@<TRIPOS>ATOM
      1 C1         -3.7142   -1.4434    3.3027 C.3       1 UNK         0.0986 
      2 C2         -4.2529   -2.9008    3.3227 C.3       1 UNK         0.1007 
      3 N3         -5.4849   -2.9979    4.1332 N.3       1 UNK        -0.7113 
      4 C4         -5.1831   -2.5166    5.4953 C.3       1 UNK         0.1007 
      5 C5         -4.6437   -1.0601    5.4632 C.3       1 UNK         0.0986 
      6 N6         -3.3989   -0.9795    4.6711 N.3       1 UNK        -0.7051 
      7 C7         -2.8897    0.3988    4.6858 C.3       1 UNK         0.1131 
      8 C8         -1.5166    0.5447    3.9863 C.3       1 UNK        -0.1197 
      9 C9         -0.4162   -0.5079    4.3098 C.3       1 UNK        -0.2881 
     10 S10        -0.2768   -0.9348    6.1320 S.3       1 UNK         1.0110 
     11 O11         0.9353   -1.7261    6.3700 O.2       1 UNK        -0.4915 
     12 O12        -0.5847    0.2386    6.9568 O.2       1 UNK        -0.4915 
     13 O13        -1.5556   -1.9619    6.2161 O.3       1 UNK        -0.5020 
     14 C14        -6.0260   -4.3700    4.1976 C.3       1 UNK         0.0871 
     15 C15        -6.5115   -4.9723    2.8540 C.3       1 UNK         0.1330 
     16 O16        -7.6576   -4.3023    2.3439 O.3       1 UNK        -0.6627 
     17 H17        -4.4422   -0.7851    2.8220 H         1 UNK         0.0691 
     18 H18        -2.8217   -1.4176    2.6756 H         1 UNK         0.0691 
     19 H19        -3.4807   -3.5780    3.6958 H         1 UNK         0.0706 
     20 H20        -4.4529   -3.1976    2.2925 H         1 UNK         0.0706 
     21 H21        -4.4598   -3.1680    5.9922 H         1 UNK         0.0706 
     22 H22        -6.0881   -2.5410    6.1060 H         1 UNK         0.0706 
     23 H23        -5.4103   -0.3908    5.0641 H         1 UNK         0.0691 
     24 H24        -4.4582   -0.7328    6.4886 H         1 UNK         0.0691 
     25 H25        -3.6117    1.0602    4.1992 H         1 UNK         0.0626 
     26 H26        -2.8051    0.7558    5.7148 H         1 UNK         0.0626 
     27 H27        -1.6615    0.6247    2.9078 H         1 UNK         0.0883 
     28 H28        -1.1328    1.5302    4.2571 H         1 UNK         0.0883 
     29 H29         0.5681   -0.1444    4.0231 H         1 UNK         0.1467 
     30 H30        -0.5768   -1.4494    3.7899 H         1 UNK         0.1467 
     31 H31        -2.2804   -1.5620    5.6590 H         1 UNK         0.3980 
     32 H32        -6.7971   -4.5100    4.9586 H         1 UNK         0.0752 
     33 H33        -5.2199   -5.0180    4.5508 H         1 UNK         0.0752 
     34 H34        -5.7157   -4.9911    2.1084 H         1 UNK         0.0513 
     35 H35        -6.7734   -6.0199    3.0134 H         1 UNK         0.0513 
     36 H36        -7.9050   -4.7229    1.5058 H         1 UNK         0.4242 
@<TRIPOS>BOND
     1    1    2 1    
     2    1    6 1    
     3    1   17 1    
     4    1   18 1    
     5    2    3 1    
     6    2   19 1    
     7    2   20 1    
     8    3    4 1    
     9    3   14 1    
    10    4    5 1    
    11    4   21 1    
    12    4   22 1    
    13    5    6 1    
    14    5   23 1    
    15    5   24 1    
    16    6    7 1    
    17    7    8 1    
    18    7   25 1    
    19    7   26 1    
    20    8    9 1    
    21    8   27 1    
    22    8   28 1    
    23    9   10 1    
    24    9   29 1    
    25    9   30 1    
    26   10   11 2    
    27   10   12 2    
    28   10   13 1    
    29   13   31 1    
    30   14   15 1    
    31   14   32 1    
    32   14   33 1    
    33   15   16 1    
    34   15   34 1    
    35   15   35 1    
    36   16   36 1    
@<TRIPOS>SUBSTRUCTURE
     1 UNK         1 GROUP             0       ****    0 ROOT    
@<TRIPOS>MOLECULE
EPPS
36   36    1
SMALL
USER_CHARGES


@<TRIPOS>ATOM
      1 C1         -4.4443   -0.5889    4.5447 C.3       1 UNK         0.0986 
      2 C2         -5.3815   -1.7274    5.0326 C.3       1 UNK         0.1007 
      3 N3         -5.5501   -2.7577    3.9894 N.3       1 UNK        -0.7113 
      4 C4         -4.2148   -3.2814    3.6337 C.3       1 UNK         0.1007 
      5 C5         -3.2792   -2.1360    3.1563 C.3       1 UNK         0.0986 
      6 N6         -3.1041   -1.1208    4.2156 N.3       1 UNK        -0.7051 
      7 C7         -2.1892   -0.0696    3.7499 C.3       1 UNK         0.1131 
      8 C8         -1.8487    0.9666    4.8482 C.3       1 UNK        -0.1197 
      9 C9         -1.4873    0.4363    6.2664 C.3       1 UNK        -0.2881 
     10 S10        -0.3298   -1.0411    6.2595 S.3       1 UNK         1.0110 
     11 O11         0.1521   -1.3065    7.6194 O.2       1 UNK        -0.4915 
     12 O12         0.6051   -0.9525    5.1326 O.2       1 UNK        -0.4915 
     13 O13        -1.4449   -2.1928    5.9024 O.3       1 UNK        -0.5020 
     14 C14        -6.4719   -3.8066    4.4689 C.3       1 UNK         0.0871 
     15 C15        -6.8517   -4.9001    3.4377 C.3       1 UNK         0.1330 
     16 O16        -7.6342   -4.3856    2.3674 O.3       1 UNK        -0.6627 
     17 H17        -4.3753    0.1599    5.3352 H         1 UNK         0.0691 
     18 H18        -4.8898   -0.0830    3.6845 H         1 UNK         0.0691 
     19 H19        -6.3517   -1.2963    5.2883 H         1 UNK         0.0706 
     20 H20        -4.9858   -2.1611    5.9544 H         1 UNK         0.0706 
     21 H21        -4.2960   -4.0069    2.8235 H         1 UNK         0.0706 
     22 H22        -3.7600   -3.8080    4.4763 H         1 UNK         0.0706 
     23 H23        -2.3120   -2.5647    2.8844 H         1 UNK         0.0691 
     24 H24        -3.6806   -1.6885    2.2433 H         1 UNK         0.0691 
     25 H25        -1.2626   -0.5159    3.3815 H         1 UNK         0.0626 
     26 H26        -2.6320    0.4475    2.8943 H         1 UNK         0.0626 
     27 H27        -1.0014    1.5464    4.4771 H         1 UNK         0.0883 
     28 H28        -2.6461    1.7088    4.9114 H         1 UNK         0.0883 
     29 H29        -2.3648    0.1305    6.8313 H         1 UNK         0.1467 
     30 H30        -0.9770    1.1991    6.8502 H         1 UNK         0.1467 
     31 H31        -2.0563   -1.7968    5.2206 H         1 UNK         0.3980 
     32 H32        -7.3785   -3.4215    4.9411 H         1 UNK         0.0752 
     33 H33        -5.9725   -4.3222    5.2930 H         1 UNK         0.0752 
     34 H34        -7.4342   -5.6722    3.9436 H         1 UNK         0.0513 
     35 H35        -5.9714   -5.4171    3.0540 H         1 UNK         0.0513 
     36 H36        -7.8317   -5.1153    1.7599 H         1 UNK         0.4242 
@<TRIPOS>BOND
     1    1    2 1    
     2    1    6 1    
     3    1   17 1    
     4    1   18 1    
     5    2    3 1    
     6    2   19 1    
     7    2   20 1    
     8    3    4 1    
     9    3   14 1    
    10    4    5 1    
    11    4   21 1    
    12    4   22 1    
    13    5    6 1    
    14    5   23 1    
    15    5   24 1    
    16    6    7 1    
    17    7    8 1    
    18    7   25 1    
    19    7   26 1    
    20    8    9 1    
    21    8   27 1    
    22    8   28 1    
    23    9   10 1    
    24    9   29 1    
    25    9   30 1    
    26   10   11 2    
    27   10   12 2    
    28   10   13 1    
    29   13   31 1    
    30   14   15 1    
    31   14   32 1    
    32   14   33 1    
    33   15   16 1    
    34   15   34 1    
    35   15   35 1    
    36   16   36 1    
@<TRIPOS>SUBSTRUCTURE
     1 UNK         1 GROUP             0       ****    0 ROOT    
@<TRIPOS>MOLECULE
EPPS
36   36    1
SMALL
USER_CHARGES


@<TRIPOS>ATOM
      1 C1         -4.4149   -0.9825    4.3353 C.3       1 UNK         0.0986 
      2 C2         -5.1713   -2.3088    4.6241 C.3       1 UNK         0.1007 
      3 N3         -5.0580   -3.2412    3.4831 N.3       1 UNK        -0.7113 
      4 C4         -3.6257   -3.4838    3.2229 C.3       1 UNK         0.1007 
      5 C5         -2.8795   -2.1516    2.9372 C.3       1 UNK         0.0986 
      6 N6         -2.9782   -1.2372    4.0938 N.3       1 UNK        -0.7051 
      7 C7         -2.2353   -0.0008    3.8138 C.3       1 UNK         0.1131 
      8 C8         -2.1786    0.9593    5.0267 C.3       1 UNK        -0.1197 
      9 C9         -1.8410    0.3558    6.4213 C.3       1 UNK        -0.2881 
     10 S10        -0.4375   -0.8900    6.3972 S.3       1 UNK         1.0110 
     11 O11        -0.0252   -1.2070    7.7689 O.2       1 UNK        -0.4915 
     12 O12         0.5526   -0.5248    5.3783 O.2       1 UNK        -0.4915 
     13 O13        -1.2926   -2.1742    5.8344 O.3       1 UNK        -0.5020 
     14 C14        -5.7469   -4.5258    3.7179 C.3       1 UNK         0.0871 
     15 C15        -7.2866   -4.4505    3.8827 C.3       1 UNK         0.1330 
     16 O16        -7.9405   -4.0609    2.6813 O.3       1 UNK        -0.6627 
     17 H17        -4.5465   -0.3205    5.1925 H         1 UNK         0.0691 
     18 H18        -4.8724   -0.4719    3.4842 H         1 UNK         0.0691 
     19 H19        -6.2175   -2.0634    4.8102 H         1 UNK         0.0706 
     20 H20        -4.7912   -2.7616    5.5430 H         1 UNK         0.0706 
     21 H21        -3.5121   -4.1408    2.3580 H         1 UNK         0.0706 
     22 H22        -3.1541   -3.9988    4.0636 H         1 UNK         0.0706 
     23 H23        -1.8320   -2.3757    2.7240 H         1 UNK         0.0691 
     24 H24        -3.2821   -1.6892    2.0322 H         1 UNK         0.0691 
     25 H25        -1.2164   -0.2390    3.4999 H         1 UNK         0.0626 
     26 H26        -2.6944    0.5176    2.9677 H         1 UNK         0.0626 
     27 H27        -1.4242    1.7127    4.7920 H         1 UNK         0.0883 
     28 H28        -3.1004    1.5411    5.0768 H         1 UNK         0.0883 
     29 H29        -2.6905   -0.1541    6.8696 H         1 UNK         0.1467 
     30 H30        -1.5259    1.1309    7.1163 H         1 UNK         0.1467 
     31 H31        -1.9088   -1.8220    5.1332 H         1 UNK         0.3980 
     32 H32        -5.3577   -4.9337    4.6541 H         1 UNK         0.0752 
     33 H33        -5.4962   -5.3049    2.9943 H         1 UNK         0.0752 
     34 H34        -7.6576   -5.4369    4.1668 H         1 UNK         0.0513 
     35 H35        -7.5736   -3.7939    4.7049 H         1 UNK         0.0513 
     36 H36        -8.8945   -4.0301    2.8533 H         1 UNK         0.4242 
@<TRIPOS>BOND
     1    1    2 1    
     2    1    6 1    
     3    1   17 1    
     4    1   18 1    
     5    2    3 1    
     6    2   19 1    
     7    2   20 1    
     8    3    4 1    
     9    3   14 1    
    10    4    5 1    
    11    4   21 1    
    12    4   22 1    
    13    5    6 1    
    14    5   23 1    
    15    5   24 1    
    16    6    7 1    
    17    7    8 1    
    18    7   25 1    
    19    7   26 1    
    20    8    9 1    
    21    8   27 1    
    22    8   28 1    
    23    9   10 1    
    24    9   29 1    
    25    9   30 1    
    26   10   11 2    
    27   10   12 2    
    28   10   13 1    
    29   13   31 1    
    30   14   15 1    
    31   14   32 1    
    32   14   33 1    
    33   15   16 1    
    34   15   34 1    
    35   15   35 1    
    36   16   36 1    
@<TRIPOS>SUBSTRUCTURE
     1 UNK         1 GROUP             0       ****    0 ROOT    
@<TRIPOS>MOLECULE
EPPS
36   36    1
SMALL
USER_CHARGES


@<TRIPOS>ATOM
      1 C1         -4.2926   -1.5678    4.5411 C.3       1 UNK         0.0986 
      2 C2         -4.4729   -3.0952    4.7726 C.3       1 UNK         0.1007 
      3 N3         -4.4925   -3.8535    3.5049 N.3       1 UNK        -0.7113 
      4 C4         -3.2456   -3.5485    2.7719 C.3       1 UNK         0.1007 
      5 C5         -3.0313   -2.0194    2.5586 C.3       1 UNK         0.0986 
      6 N6         -3.0122   -1.3000    3.8495 N.3       1 UNK        -0.7051 
      7 C7         -2.8087    0.1365    3.6202 C.3       1 UNK         0.1131 
      8 C8         -2.4433    0.9153    4.9049 C.3       1 UNK        -0.1197 
      9 C9         -1.0609    0.5993    5.5424 C.3       1 UNK        -0.2881 
     10 S10        -1.0077   -1.0157    6.5001 S.3       1 UNK         1.0110 
     11 O11        -2.2664   -1.2187    7.2249 O.2       1 UNK        -0.4915 
     12 O12         0.2847   -1.1445    7.1821 O.2       1 UNK        -0.4915 
     13 O13        -0.9912   -2.0421    5.2228 O.3       1 UNK        -0.5020 
     14 C14        -5.6937   -3.6450    2.6686 C.3       1 UNK         0.0871 
     15 C15        -7.0347   -4.1590    3.2502 C.3       1 UNK         0.1330 
     16 O16        -7.5797   -3.3104    4.2526 O.3       1 UNK        -0.6627 
     17 H17        -4.3185   -1.0726    5.5123 H         1 UNK         0.0691 
     18 H18        -5.1395   -1.1678    3.9787 H         1 UNK         0.0691 
     19 H19        -5.3730   -3.2807    5.3576 H         1 UNK         0.0706 
     20 H20        -3.6571   -3.4632    5.3986 H         1 UNK         0.0706 
     21 H21        -3.2430   -4.0539    1.8040 H         1 UNK         0.0706 
     22 H22        -2.3940   -3.9642    3.3147 H         1 UNK         0.0706 
     23 H23        -2.0797   -1.8743    2.0427 H         1 UNK         0.0691 
     24 H24        -3.7974   -1.6168    1.8919 H         1 UNK         0.0691 
     25 H25        -1.9827    0.2681    2.9166 H         1 UNK         0.0626 
     26 H26        -3.6822    0.5854    3.1399 H         1 UNK         0.0626 
     27 H27        -2.4328    1.9705    4.6262 H         1 UNK         0.0883 
     28 H28        -3.2413    0.8511    5.6455 H         1 UNK         0.0883 
     29 H29        -0.7848    1.3605    6.2688 H         1 UNK         0.1467 
     30 H30        -0.2625    0.5418    4.8059 H         1 UNK         0.1467 
     31 H31        -1.7994   -1.8074    4.6826 H         1 UNK         0.3980 
     32 H32        -5.5310   -4.2684    1.7865 H         1 UNK         0.0752 
     33 H33        -5.8060   -2.6465    2.2422 H         1 UNK         0.0752 
     34 H34        -7.7642   -4.2327    2.4416 H         1 UNK         0.0513 
     35 H35        -6.9215   -5.1765    3.6294 H         1 UNK         0.0513 
     36 H36        -8.4143   -3.7003    4.5554 H         1 UNK         0.4242 
@<TRIPOS>BOND
     1    1    2 1    
     2    1    6 1    
     3    1   17 1    
     4    1   18 1    
     5    2    3 1    
     6    2   19 1    
     7    2   20 1    
     8    3    4 1    
     9    3   14 1    
    10    4    5 1    
    11    4   21 1    
    12    4   22 1    
    13    5    6 1    
    14    5   23 1    
    15    5   24 1    
    16    6    7 1    
    17    7    8 1    
    18    7   25 1    
    19    7   26 1    
    20    8    9 1    
    21    8   27 1    
    22    8   28 1    
    23    9   10 1    
    24    9   29 1    
    25    9   30 1    
    26   10   11 2    
    27   10   12 2    
    28   10   13 1    
    29   13   31 1    
    30   14   15 1    
    31   14   32 1    
    32   14   33 1    
    33   15   16 1    
    34   15   34 1    
    35   15   35 1    
    36   16   36 1    
@<TRIPOS>SUBSTRUCTURE
     1 UNK         1 GROUP             0       ****    0 ROOT    
@<TRIPOS>MOLECULE
EPPS
36   36    1
SMALL
USER_CHARGES


@<TRIPOS>ATOM
      1 C1         -4.9000   -0.7630    5.3913 C.3       1 UNK         0.0986 
      2 C2         -5.3777   -2.1160    6.0003 C.3       1 UNK         0.1007 
      3 N3         -5.4764   -3.1926    4.9923 N.3       1 UNK        -0.7113 
      4 C4         -4.1698   -3.3002    4.3113 C.3       1 UNK         0.1007 
      5 C5         -3.7233   -1.9510    3.6796 C.3       1 UNK         0.0986 
      6 N6         -3.5891   -0.9128    4.7254 N.3       1 UNK        -0.7051 
      7 C7         -3.1631    0.3747    4.1612 C.3       1 UNK         0.1131 
      8 C8         -1.6744    0.3974    3.7440 C.3       1 UNK        -0.1197 
      9 C9         -0.6275    0.3063    4.8898 C.3       1 UNK        -0.2881 
     10 S10        -0.4098   -1.4204    5.5962 S.3       1 UNK         1.0110 
     11 O11         0.6980   -1.4257    6.5579 O.2       1 UNK        -0.4915 
     12 O12        -0.4844   -2.4206    4.5262 O.2       1 UNK        -0.4915 
     13 O13        -1.8034   -1.4970    6.4548 O.3       1 UNK        -0.5020 
     14 C14        -6.6373   -3.0088    4.0955 C.3       1 UNK         0.0871 
     15 C15        -6.9767   -4.1944    3.1573 C.3       1 UNK         0.1330 
     16 O16        -6.1153   -4.2890    2.0300 O.3       1 UNK        -0.6627 
     17 H17        -4.8210   -0.0315    6.1984 H         1 UNK         0.0691 
     18 H18        -5.6513   -0.3688    4.7031 H         1 UNK         0.0691 
     19 H19        -6.3406   -1.9717    6.4946 H         1 UNK         0.0706 
     20 H20        -4.6915   -2.4220    6.7930 H         1 UNK         0.0706 
     21 H21        -4.1833   -4.0818    3.5525 H         1 UNK         0.0706 
     22 H22        -3.4159   -3.6280    5.0305 H         1 UNK         0.0706 
     23 H23        -2.7723   -2.1132    3.1715 H         1 UNK         0.0691 
     24 H24        -4.4289   -1.6448    2.9037 H         1 UNK         0.0691 
     25 H25        -3.7974    0.6639    3.3192 H         1 UNK         0.0626 
     26 H26        -3.2990    1.1532    4.9163 H         1 UNK         0.0626 
     27 H27        -1.4712   -0.3403    2.9668 H         1 UNK         0.0883 
     28 H28        -1.5157    1.3533    3.2415 H         1 UNK         0.0883 
     29 H29        -0.8702    0.9505    5.7320 H         1 UNK         0.1467 
     30 H30         0.3620    0.5865    4.5352 H         1 UNK         0.1467 
     31 H31        -2.5326   -1.3154    5.7951 H         1 UNK         0.3980 
     32 H32        -6.6754   -2.0588    3.5594 H         1 UNK         0.0752 
     33 H33        -7.4987   -2.9447    4.7640 H         1 UNK         0.0752 
     34 H34        -6.9829   -5.1330    3.7149 H         1 UNK         0.0513 
     35 H35        -7.9969   -4.0714    2.7892 H         1 UNK         0.0513 
     36 H36        -6.3998   -5.0475    1.4971 H         1 UNK         0.4242 
@<TRIPOS>BOND
     1    1    2 1    
     2    1    6 1    
     3    1   17 1    
     4    1   18 1    
     5    2    3 1    
     6    2   19 1    
     7    2   20 1    
     8    3    4 1    
     9    3   14 1    
    10    4    5 1    
    11    4   21 1    
    12    4   22 1    
    13    5    6 1    
    14    5   23 1    
    15    5   24 1    
    16    6    7 1    
    17    7    8 1    
    18    7   25 1    
    19    7   26 1    
    20    8    9 1    
    21    8   27 1    
    22    8   28 1    
    23    9   10 1    
    24    9   29 1    
    25    9   30 1    
    26   10   11 2    
    27   10   12 2    
    28   10   13 1    
    29   13   31 1    
    30   14   15 1    
    31   14   32 1    
    32   14   33 1    
    33   15   16 1    
    34   15   34 1    
    35   15   35 1    
    36   16   36 1    
@<TRIPOS>SUBSTRUCTURE
     1 UNK         1 GROUP             0       ****    0 ROOT    
@<TRIPOS>MOLECULE
EPPS
36   36    1
SMALL
USER_CHARGES


@<TRIPOS>ATOM
      1 C1         -4.7942   -0.3862    4.6483 C.3       1 UNK         0.0986 
      2 C2         -5.7303   -1.6247    4.5777 C.3       1 UNK         0.1007 
      3 N3         -5.8159   -2.1254    3.1920 N.3       1 UNK        -0.7113 
      4 C4         -4.4586   -2.4688    2.7287 C.3       1 UNK         0.1007 
      5 C5         -3.5286   -1.2266    2.8056 C.3       1 UNK         0.0986 
      6 N6         -3.4290   -0.7291    4.1959 N.3       1 UNK        -0.7051 
      7 C7         -2.5592    0.4502    4.3025 C.3       1 UNK         0.1131 
      8 C8         -1.0782    0.1424    3.9738 C.3       1 UNK        -0.1197 
      9 C9         -0.4413   -1.1345    4.5960 C.3       1 UNK        -0.2881 
     10 S10        -0.8710   -1.4023    6.4032 S.3       1 UNK         1.0110 
     11 O11        -1.0134   -0.1145    7.0910 O.2       1 UNK        -0.4915 
     12 O12        -0.0334   -2.4678    6.9648 O.2       1 UNK        -0.4915 
     13 O13        -2.3737   -2.0269    6.1821 O.3       1 UNK        -0.5020 
     14 C14        -6.7790   -3.2314    3.0172 C.3       1 UNK         0.0871 
     15 C15        -6.6271   -4.5094    3.8881 C.3       1 UNK         0.1330 
     16 O16        -5.5199   -5.3172    3.5117 O.3       1 UNK        -0.6627 
     17 H17        -4.7680   -0.0256    5.6789 H         1 UNK         0.0691 
     18 H18        -5.2140    0.4281    4.0519 H         1 UNK         0.0691 
     19 H19        -6.7226   -1.3457    4.9376 H         1 UNK         0.0706 
     20 H20        -5.3580   -2.3955    5.2558 H         1 UNK         0.0706 
     21 H21        -4.4948   -2.8315    1.6996 H         1 UNK         0.0706 
     22 H22        -4.0275   -3.2739    3.3266 H         1 UNK         0.0706 
     23 H23        -2.5449   -1.5128    2.4307 H         1 UNK         0.0691 
     24 H24        -3.8946   -0.4460    2.1340 H         1 UNK         0.0691 
     25 H25        -2.9206    1.2322    3.6292 H         1 UNK         0.0626 
     26 H26        -2.6209    0.8713    5.3086 H         1 UNK         0.0626 
     27 H27        -0.9336    0.1515    2.8923 H         1 UNK         0.0883 
     28 H28        -0.4998    1.0063    4.3070 H         1 UNK         0.0883 
     29 H29         0.6448   -1.0850    4.5626 H         1 UNK         0.1467 
     30 H30        -0.7392   -2.0422    4.0766 H         1 UNK         0.1467 
     31 H31        -2.7968   -1.5006    5.4475 H         1 UNK         0.3980 
     32 H32        -6.9638   -3.4892    1.9725 H         1 UNK         0.0752 
     33 H33        -7.7414   -2.8008    3.3016 H         1 UNK         0.0752 
     34 H34        -6.5835   -4.2666    4.9506 H         1 UNK         0.0513 
     35 H35        -7.5307   -5.1117    3.7776 H         1 UNK         0.0513 
     36 H36        -5.5130   -6.1034    4.0793 H         1 UNK         0.4242 
@<TRIPOS>BOND
     1    1    2 1    
     2    1    6 1    
     3    1   17 1    
     4    1   18 1    
     5    2    3 1    
     6    2   19 1    
     7    2   20 1    
     8    3    4 1    
     9    3   14 1    
    10    4    5 1    
    11    4   21 1    
    12    4   22 1    
    13    5    6 1    
    14    5   23 1    
    15    5   24 1    
    16    6    7 1    
    17    7    8 1    
    18    7   25 1    
    19    7   26 1    
    20    8    9 1    
    21    8   27 1    
    22    8   28 1    
    23    9   10 1    
    24    9   29 1    
    25    9   30 1    
    26   10   11 2    
    27   10   12 2    
    28   10   13 1    
    29   13   31 1    
    30   14   15 1    
    31   14   32 1    
    32   14   33 1    
    33   15   16 1    
    34   15   34 1    
    35   15   35 1    
    36   16   36 1    
@<TRIPOS>SUBSTRUCTURE
     1 UNK         1 GROUP             0       ****    0 ROOT    
@<TRIPOS>MOLECULE
EPPS
36   36    1
SMALL
USER_CHARGES


@<TRIPOS>ATOM
      1 C1         -4.3189   -1.2283    5.4120 C.3       1 UNK         0.0986 
      2 C2         -4.6253   -2.6917    5.8513 C.3       1 UNK         0.1007 
      3 N3         -5.1301   -3.5269    4.7412 N.3       1 UNK        -0.7113 
      4 C4         -4.1521   -3.4553    3.6361 C.3       1 UNK         0.1007 
      5 C5         -3.8763   -1.9914    3.1879 C.3       1 UNK         0.0986 
      6 N6         -3.3302   -1.2015    4.3112 N.3       1 UNK        -0.7051 
      7 C7         -3.0472    0.1704    3.8689 C.3       1 UNK         0.1131 
      8 C8         -2.1747    0.9672    4.8663 C.3       1 UNK        -0.1197 
      9 C9         -0.7045    0.4921    5.0400 C.3       1 UNK        -0.2881 
     10 S10        -0.5147   -1.0500    6.0956 S.3       1 UNK         1.0110 
     11 O11        -1.4603   -1.0186    7.2162 O.2       1 UNK        -0.4915 
     12 O12         0.9090   -1.3257    6.3174 O.2       1 UNK        -0.4915 
     13 O13        -1.0612   -2.1454    5.0062 O.3       1 UNK        -0.5020 
     14 C14        -6.5190   -3.1803    4.3717 C.3       1 UNK         0.0871 
     15 C15        -7.2327   -4.1487    3.3951 C.3       1 UNK         0.1330 
     16 O16        -6.8279   -3.9889    2.0415 O.3       1 UNK        -0.6627 
     17 H17        -3.9380   -0.6898    6.2804 H         1 UNK         0.0691 
     18 H18        -5.2405   -0.7160    5.1267 H         1 UNK         0.0691 
     19 H19        -5.3439   -2.6811    6.6734 H         1 UNK         0.0706 
     20 H20        -3.7220   -3.1444    6.2661 H         1 UNK         0.0706 
     21 H21        -4.4752   -4.0520    2.7838 H         1 UNK         0.0706 
     22 H22        -3.2155   -3.9169    3.9562 H         1 UNK         0.0706 
     23 H23        -3.1606   -2.0106    2.3632 H         1 UNK         0.0691 
     24 H24        -4.7871   -1.5397    2.7873 H         1 UNK         0.0691 
     25 H25        -2.5012    0.1302    2.9230 H         1 UNK         0.0626 
     26 H26        -3.9715    0.7134    3.6548 H         1 UNK         0.0626 
     27 H27        -2.1374    1.9896    4.4861 H         1 UNK         0.0883 
     28 H28        -2.6714    1.0676    5.8320 H         1 UNK         0.0883 
     29 H29        -0.1091    1.2485    5.5465 H         1 UNK         0.1467 
     30 H30        -0.2199    0.2720    4.0914 H         1 UNK         0.1467 
     31 H31        -1.9726   -1.8283    4.7442 H         1 UNK         0.3980 
     32 H32        -6.6879   -2.1397    4.0887 H         1 UNK         0.0752 
     33 H33        -7.0867   -3.2742    5.3001 H         1 UNK         0.0752 
     34 H34        -7.0970   -5.1833    3.7162 H         1 UNK         0.0513 
     35 H35        -8.3085   -3.9704    3.4457 H         1 UNK         0.0513 
     36 H36        -7.3234   -4.6248    1.5025 H         1 UNK         0.4242 
@<TRIPOS>BOND
     1    1    2 1    
     2    1    6 1    
     3    1   17 1    
     4    1   18 1    
     5    2    3 1    
     6    2   19 1    
     7    2   20 1    
     8    3    4 1    
     9    3   14 1    
    10    4    5 1    
    11    4   21 1    
    12    4   22 1    
    13    5    6 1    
    14    5   23 1    
    15    5   24 1    
    16    6    7 1    
    17    7    8 1    
    18    7   25 1    
    19    7   26 1    
    20    8    9 1    
    21    8   27 1    
    22    8   28 1    
    23    9   10 1    
    24    9   29 1    
    25    9   30 1    
    26   10   11 2    
    27   10   12 2    
    28   10   13 1    
    29   13   31 1    
    30   14   15 1    
    31   14   32 1    
    32   14   33 1    
    33   15   16 1    
    34   15   34 1    
    35   15   35 1    
    36   16   36 1    
@<TRIPOS>SUBSTRUCTURE
     1 UNK         1 GROUP             0       ****    0 ROOT    
@<TRIPOS>MOLECULE
EPPS
36   36    1
SMALL
USER_CHARGES


@<TRIPOS>ATOM
      1 C1         -4.7927   -1.4279    4.4925 C.3       1 UNK         0.0986 
      2 C2         -5.0600   -2.8913    4.9475 C.3       1 UNK         0.1007 
      3 N3         -4.5711   -3.8801    3.9647 N.3       1 UNK        -0.7113 
      4 C4         -3.1334   -3.6236    3.7369 C.3       1 UNK         0.1007 
      5 C5         -2.8453   -2.1537    3.3067 C.3       1 UNK         0.0986 
      6 N6         -3.3432   -1.1974    4.3204 N.3       1 UNK        -0.7051 
      7 C7         -3.1007    0.1946    3.9188 C.3       1 UNK         0.1131 
      8 C8         -1.6181    0.6166    4.0393 C.3       1 UNK        -0.1197 
      9 C9         -1.0332    0.7045    5.4772 C.3       1 UNK        -0.2881 
     10 S10        -0.6279   -0.9610    6.2453 S.3       1 UNK         1.0110 
     11 O11         0.0496   -0.7614    7.5311 O.2       1 UNK        -0.4915 
     12 O12        -0.0736   -1.8662    5.2332 O.2       1 UNK        -0.4915 
     13 O13        -2.1594   -1.4458    6.5695 O.3       1 UNK        -0.5020 
     14 C14        -5.3334   -3.9352    2.6992 C.3       1 UNK         0.0871 
     15 C15        -6.7963   -4.4363    2.7983 C.3       1 UNK         0.1330 
     16 O16        -7.6971   -3.4588    3.3032 O.3       1 UNK        -0.6627 
     17 H17        -5.1903   -0.7509    5.2516 H         1 UNK         0.0691 
     18 H18        -5.3438   -1.2098    3.5745 H         1 UNK         0.0691 
     19 H19        -6.1206   -3.0305    5.1534 H         1 UNK         0.0706 
     20 H20        -4.5680   -3.0662    5.9067 H         1 UNK         0.0706 
     21 H21        -2.7429   -4.3066    2.9797 H         1 UNK         0.0706 
     22 H22        -2.5737   -3.8534    4.6462 H         1 UNK         0.0706 
     23 H23        -1.7677   -2.0465    3.1779 H         1 UNK         0.0691 
     24 H24        -3.2822   -1.9518    2.3261 H         1 UNK         0.0691 
     25 H25        -3.4679    0.3818    2.9063 H         1 UNK         0.0626 
     26 H26        -3.6783    0.8553    4.5703 H         1 UNK         0.0626 
     27 H27        -0.9819    0.0107    3.3931 H         1 UNK         0.0883 
     28 H28        -1.5517    1.6160    3.6056 H         1 UNK         0.0883 
     29 H29        -1.7034    1.2044    6.1728 H         1 UNK         0.1467 
     30 H30        -0.0903    1.2470    5.4806 H         1 UNK         0.1467 
     31 H31        -2.6429   -1.4028    5.6952 H         1 UNK         0.3980 
     32 H32        -4.8308   -4.7006    2.1038 H         1 UNK         0.0752 
     33 H33        -5.2625   -3.0496    2.0651 H         1 UNK         0.0752 
     34 H34        -6.8475   -5.3492    3.3949 H         1 UNK         0.0513 
     35 H35        -7.1384   -4.7236    1.8024 H         1 UNK         0.0513 
     36 H36        -8.5837   -3.8506    3.3264 H         1 UNK         0.4242 
@<TRIPOS>BOND
     1    1    2 1    
     2    1    6 1    
     3    1   17 1    
     4    1   18 1    
     5    2    3 1    
     6    2   19 1    
     7    2   20 1    
     8    3    4 1    
     9    3   14 1    
    10    4    5 1    
    11    4   21 1    
    12    4   22 1    
    13    5    6 1    
    14    5   23 1    
    15    5   24 1    
    16    6    7 1    
    17    7    8 1    
    18    7   25 1    
    19    7   26 1    
    20    8    9 1    
    21    8   27 1    
    22    8   28 1    
    23    9   10 1    
    24    9   29 1    
    25    9   30 1    
    26   10   11 2    
    27   10   12 2    
    28   10   13 1    
    29   13   31 1    
    30   14   15 1    
    31   14   32 1    
    32   14   33 1    
    33   15   16 1    
    34   15   34 1    
    35   15   35 1    
    36   16   36 1    
@<TRIPOS>SUBSTRUCTURE
     1 UNK         1 GROUP             0       ****    0 ROOT    
@<TRIPOS>MOLECULE
EPPS
36   36    1
SMALL
USER_CHARGES


@<TRIPOS>ATOM
      1 C1         -4.5686   -0.4837    3.1469 C.3       1 UNK         0.0986 
      2 C2         -5.4113   -1.7964    3.0226 C.3       1 UNK         0.1007 
      3 N3         -4.6507   -3.0248    3.3381 N.3       1 UNK        -0.7113 
      4 C4         -3.3924   -3.0339    2.5669 C.3       1 UNK         0.1007 
      5 C5         -2.5606   -1.7156    2.6996 C.3       1 UNK         0.0986 
      6 N6         -3.1813   -0.7161    3.5954 N.3       1 UNK        -0.7051 
      7 C7         -2.4218    0.5355    3.6700 C.3       1 UNK         0.1131 
      8 C8         -1.1368    0.3973    4.5164 C.3       1 UNK        -0.1197 
      9 C9         -1.3343    0.1181    6.0336 C.3       1 UNK        -0.2881 
     10 S10        -1.7464   -1.6706    6.4419 S.3       1 UNK         1.0110 
     11 O11        -1.7270   -1.8576    7.8969 O.2       1 UNK        -0.4915 
     12 O12        -1.0062   -2.5772    5.5583 O.2       1 UNK        -0.4915 
     13 O13        -3.3170   -1.6719    5.9720 O.3       1 UNK        -0.5020 
     14 C14        -5.4111   -4.2707    3.1291 C.3       1 UNK         0.0871 
     15 C15        -6.5982   -4.4431    4.1034 C.3       1 UNK         0.1330 
     16 O16        -6.1159   -4.4421    5.4366 O.3       1 UNK        -0.6627 
     17 H17        -5.0685    0.1856    3.8504 H         1 UNK         0.0691 
     18 H18        -4.5723    0.0377    2.1865 H         1 UNK         0.0691 
     19 H19        -5.8288   -1.8604    2.0151 H         1 UNK         0.0706 
     20 H20        -6.2656   -1.7115    3.6956 H         1 UNK         0.0706 
     21 H21        -3.5995   -3.2206    1.5106 H         1 UNK         0.0706 
     22 H22        -2.7745   -3.8695    2.9025 H         1 UNK         0.0706 
     23 H23        -1.5640   -1.9746    3.0585 H         1 UNK         0.0691 
     24 H24        -2.4122   -1.2866    1.7058 H         1 UNK         0.0691 
     25 H25        -2.1860    0.9120    2.6714 H         1 UNK         0.0626 
     26 H26        -3.0435    1.3014    4.1403 H         1 UNK         0.0626 
     27 H27        -0.4461   -0.3183    4.0684 H         1 UNK         0.0883 
     28 H28        -0.6136    1.3512    4.4301 H         1 UNK         0.0883 
     29 H29        -2.1287    0.7190    6.4707 H         1 UNK         0.1467 
     30 H30        -0.4214    0.3242    6.5878 H         1 UNK         0.1467 
     31 H31        -3.3155   -1.4056    5.0077 H         1 UNK         0.3980 
     32 H32        -4.7967   -5.1740    3.1405 H         1 UNK         0.0752 
     33 H33        -5.8166   -4.2608    2.1145 H         1 UNK         0.0752 
     34 H34        -7.1098   -5.3865    3.9058 H         1 UNK         0.0513 
     35 H35        -7.3449   -3.6602    3.9648 H         1 UNK         0.0513 
     36 H36        -5.4675   -3.7179    5.4697 H         1 UNK         0.4242 
@<TRIPOS>BOND
     1    1    2 1    
     2    1    6 1    
     3    1   17 1    
     4    1   18 1    
     5    2    3 1    
     6    2   19 1    
     7    2   20 1    
     8    3    4 1    
     9    3   14 1    
    10    4    5 1    
    11    4   21 1    
    12    4   22 1    
    13    5    6 1    
    14    5   23 1    
    15    5   24 1    
    16    6    7 1    
    17    7    8 1    
    18    7   25 1    
    19    7   26 1    
    20    8    9 1    
    21    8   27 1    
    22    8   28 1    
    23    9   10 1    
    24    9   29 1    
    25    9   30 1    
    26   10   11 2    
    27   10   12 2    
    28   10   13 1    
    29   13   31 1    
    30   14   15 1    
    31   14   32 1    
    32   14   33 1    
    33   15   16 1    
    34   15   34 1    
    35   15   35 1    
    36   16   36 1    
@<TRIPOS>SUBSTRUCTURE
     1 UNK         1 GROUP             0       ****    0 ROOT    
@<TRIPOS>MOLECULE
EPPS
36   36    1
SMALL
USER_CHARGES


@<TRIPOS>ATOM
      1 C1         -4.4525   -0.3440    4.0295 C.3       1 UNK         0.0986 
      2 C2         -5.4893   -1.5149    3.9885 C.3       1 UNK         0.1007 
      3 N3         -4.9650   -2.7575    3.3815 N.3       1 UNK        -0.7113 
      4 C4         -4.3335   -2.4421    2.0855 C.3       1 UNK         0.1007 
      5 C5         -3.2829   -1.2853    2.1608 C.3       1 UNK         0.0986 
      6 N6         -3.1186   -0.7231    3.5165 N.3       1 UNK        -0.7051 
      7 C7         -2.1652    0.3908    3.5213 C.3       1 UNK         0.1131 
      8 C8         -1.6640    0.7379    4.9408 C.3       1 UNK        -0.1197 
      9 C9         -0.8097   -0.3457    5.6577 C.3       1 UNK        -0.2881 
     10 S10        -1.8138   -1.7488    6.4047 S.3       1 UNK         1.0110 
     11 O11        -3.0731   -1.2369    6.9547 O.2       1 UNK        -0.4915 
     12 O12        -0.9359   -2.6055    7.2093 O.2       1 UNK        -0.4915 
     13 O13        -2.1574   -2.5640    5.0246 O.3       1 UNK        -0.5020 
     14 C14        -5.9745   -3.8224    3.2360 C.3       1 UNK         0.0871 
     15 C15        -6.4710   -4.3916    4.5840 C.3       1 UNK         0.1330 
     16 O16        -5.3707   -4.9295    5.2977 O.3       1 UNK        -0.6627 
     17 H17        -4.3749    0.0097    5.0580 H         1 UNK         0.0691 
     18 H18        -4.8463    0.5004    3.4588 H         1 UNK         0.0691 
     19 H19        -6.3835   -1.1832    3.4558 H         1 UNK         0.0706 
     20 H20        -5.8078   -1.7159    5.0124 H         1 UNK         0.0706 
     21 H21        -5.0972   -2.1833    1.3482 H         1 UNK         0.0706 
     22 H22        -3.8392   -3.3368    1.7013 H         1 UNK         0.0706 
     23 H23        -2.3214   -1.6664    1.8101 H         1 UNK         0.0691 
     24 H24        -3.5654   -0.4983    1.4572 H         1 UNK         0.0691 
     25 H25        -1.2930    0.1146    2.9236 H         1 UNK         0.0626 
     26 H26        -2.5921    1.2738    3.0390 H         1 UNK         0.0626 
     27 H27        -1.0343    1.6225    4.8306 H         1 UNK         0.0883 
     28 H28        -2.4827    1.0815    5.5743 H         1 UNK         0.0883 
     29 H29        -0.2660    0.0817    6.4973 H         1 UNK         0.1467 
     30 H30        -0.0827   -0.8123    4.9967 H         1 UNK         0.1467 
     31 H31        -2.6290   -1.9137    4.4283 H         1 UNK         0.3980 
     32 H32        -5.6650   -4.6440    2.5857 H         1 UNK         0.0752 
     33 H33        -6.8404   -3.4079    2.7142 H         1 UNK         0.0752 
     34 H34        -7.2078   -5.1775    4.4100 H         1 UNK         0.0513 
     35 H35        -6.9773   -3.6286    5.1770 H         1 UNK         0.0513 
     36 H36        -4.6561   -4.2799    5.1839 H         1 UNK         0.4242 
@<TRIPOS>BOND
     1    1    2 1    
     2    1    6 1    
     3    1   17 1    
     4    1   18 1    
     5    2    3 1    
     6    2   19 1    
     7    2   20 1    
     8    3    4 1    
     9    3   14 1    
    10    4    5 1    
    11    4   21 1    
    12    4   22 1    
    13    5    6 1    
    14    5   23 1    
    15    5   24 1    
    16    6    7 1    
    17    7    8 1    
    18    7   25 1    
    19    7   26 1    
    20    8    9 1    
    21    8   27 1    
    22    8   28 1    
    23    9   10 1    
    24    9   29 1    
    25    9   30 1    
    26   10   11 2    
    27   10   12 2    
    28   10   13 1    
    29   13   31 1    
    30   14   15 1    
    31   14   32 1    
    32   14   33 1    
    33   15   16 1    
    34   15   34 1    
    35   15   35 1    
    36   16   36 1    
@<TRIPOS>SUBSTRUCTURE
     1 UNK         1 GROUP             0       ****    0 ROOT    
@<TRIPOS>MOLECULE
EPPS
36   36    1
SMALL
USER_CHARGES


@<TRIPOS>ATOM
      1 C1         -4.6979   -1.3333    5.4247 C.3       1 UNK         0.0986 
      2 C2         -5.1372   -2.8268    5.4404 C.3       1 UNK         0.1007 
      3 N3         -5.3732   -3.3630    4.0849 N.3       1 UNK        -0.7113 
      4 C4         -4.1569   -3.1336    3.2743 C.3       1 UNK         0.1007 
      5 C5         -3.7143   -1.6412    3.2619 C.3       1 UNK         0.0986 
      6 N6         -3.4607   -1.1576    4.6363 N.3       1 UNK        -0.7051 
      7 C7         -3.0500    0.2530    4.6629 C.3       1 UNK         0.1131 
      8 C8         -1.6814    0.4987    3.9829 C.3       1 UNK        -0.1197 
      9 C9         -0.5136   -0.4743    4.3185 C.3       1 UNK        -0.2881 
     10 S10        -0.3704   -0.9002    6.1407 S.3       1 UNK         1.0110 
     11 O11        -0.7753    0.2428    6.9661 O.2       1 UNK        -0.4915 
     12 O12         0.8926   -1.6024    6.3933 O.2       1 UNK        -0.4915 
     13 O13        -1.5719   -2.0183    6.2006 O.3       1 UNK        -0.5020 
     14 C14        -6.6322   -2.8588    3.4965 C.3       1 UNK         0.0871 
     15 C15        -7.0589   -3.5891    2.2030 C.3       1 UNK         0.1330 
     16 O16        -7.2556   -4.9667    2.4745 O.3       1 UNK        -0.6627 
     17 H17        -4.5310   -1.0108    6.4547 H         1 UNK         0.0691 
     18 H18        -5.5053   -0.7051    5.0410 H         1 UNK         0.0691 
     19 H19        -6.0359   -2.9359    6.0510 H         1 UNK         0.0706 
     20 H20        -4.3740   -3.4267    5.9410 H         1 UNK         0.0706 
     21 H21        -4.2956   -3.4818    2.2505 H         1 UNK         0.0706 
     22 H22        -3.3434   -3.7449    3.6708 H         1 UNK         0.0706 
     23 H23        -2.8067   -1.5641    2.6616 H         1 UNK         0.0691 
     24 H24        -4.4597   -1.0240    2.7558 H         1 UNK         0.0691 
     25 H25        -3.8104    0.8638    4.1688 H         1 UNK         0.0626 
     26 H26        -3.0045    0.6109    5.6941 H         1 UNK         0.0626 
     27 H27        -1.8171    0.5725    2.9027 H         1 UNK         0.0883 
     28 H28        -1.3723    1.5078    4.2620 H         1 UNK         0.0883 
     29 H29         0.4463   -0.0398    4.0483 H         1 UNK         0.1467 
     30 H30        -0.5983   -1.4221    3.7922 H         1 UNK         0.1467 
     31 H31        -2.3161   -1.6687    5.6358 H         1 UNK         0.3980 
     32 H32        -6.5061   -1.8049    3.2425 H         1 UNK         0.0752 
     33 H33        -7.4713   -2.8402    4.1958 H         1 UNK         0.0752 
     34 H34        -7.9903   -3.1628    1.8269 H         1 UNK         0.0513 
     35 H35        -6.3264   -3.4553    1.4061 H         1 UNK         0.0513 
     36 H36        -6.4894   -5.2366    3.0080 H         1 UNK         0.4242 
@<TRIPOS>BOND
     1    1    2 1    
     2    1    6 1    
     3    1   17 1    
     4    1   18 1    
     5    2    3 1    
     6    2   19 1    
     7    2   20 1    
     8    3    4 1    
     9    3   14 1    
    10    4    5 1    
    11    4   21 1    
    12    4   22 1    
    13    5    6 1    
    14    5   23 1    
    15    5   24 1    
    16    6    7 1    
    17    7    8 1    
    18    7   25 1    
    19    7   26 1    
    20    8    9 1    
    21    8   27 1    
    22    8   28 1    
    23    9   10 1    
    24    9   29 1    
    25    9   30 1    
    26   10   11 2    
    27   10   12 2    
    28   10   13 1    
    29   13   31 1    
    30   14   15 1    
    31   14   32 1    
    32   14   33 1    
    33   15   16 1    
    34   15   34 1    
    35   15   35 1    
    36   16   36 1    
@<TRIPOS>SUBSTRUCTURE
     1 UNK         1 GROUP             0       ****    0 ROOT    
@<TRIPOS>MOLECULE
EPPS
36   36    1
SMALL
USER_CHARGES


@<TRIPOS>ATOM
      1 C1         -4.5055   -1.1084    4.3619 C.3       1 UNK         0.0986 
      2 C2         -5.2744   -2.3961    4.7787 C.3       1 UNK         0.1007 
      3 N3         -5.1747   -3.4736    3.7697 N.3       1 UNK        -0.7113 
      4 C4         -3.7453   -3.7259    3.4978 C.3       1 UNK         0.1007 
      5 C5         -2.9795   -2.4368    3.0786 C.3       1 UNK         0.0986 
      6 N6         -3.0749   -1.4033    4.1303 N.3       1 UNK        -0.7051 
      7 C7         -2.3193   -0.2100    3.7251 C.3       1 UNK         0.1131 
      8 C8         -2.2454    0.8662    4.8351 C.3       1 UNK        -0.1197 
      9 C9         -1.9063    0.4018    6.2817 C.3       1 UNK        -0.2881 
     10 S10        -0.5181   -0.8576    6.3765 S.3       1 UNK         1.0110 
     11 O11        -0.1005   -1.0388    7.7711 O.2       1 UNK        -0.4915 
     12 O12         0.4695   -0.6103    5.3204 O.2       1 UNK        -0.4915 
     13 O13        -1.3922   -2.1815    5.9520 O.3       1 UNK        -0.5020 
     14 C14        -5.9487   -3.2549    2.5293 C.3       1 UNK         0.0871 
     15 C15        -7.4804   -3.2512    2.7357 C.3       1 UNK         0.1330 
     16 O16        -7.8946   -4.4999    3.2643 O.3       1 UNK        -0.6627 
     17 H17        -4.6148   -0.3765    5.1636 H         1 UNK         0.0691 
     18 H18        -4.9645   -0.6555    3.4804 H         1 UNK         0.0691 
     19 H19        -6.3153   -2.1484    4.9878 H         1 UNK         0.0706 
     20 H20        -4.8761   -2.7590    5.7287 H         1 UNK         0.0706 
     21 H21        -3.6376   -4.4834    2.7187 H         1 UNK         0.0706 
     22 H22        -3.2769   -4.1566    4.3854 H         1 UNK         0.0706 
     23 H23        -1.9326   -2.6967    2.9071 H         1 UNK         0.0691 
     24 H24        -3.3569   -2.0660    2.1227 H         1 UNK         0.0691 
     25 H25        -1.3046   -0.4900    3.4327 H         1 UNK         0.0626 
     26 H26        -2.7768    0.2261    2.8330 H         1 UNK         0.0626 
     27 H27        -1.4842    1.5836    4.5225 H         1 UNK         0.0883 
     28 H28        -3.1606    1.4605    4.8307 H         1 UNK         0.0883 
     29 H29        -2.7589   -0.0496    6.7836 H         1 UNK         0.1467 
     30 H30        -1.5777    1.2390    6.8934 H         1 UNK         0.1467 
     31 H31        -2.0084   -1.8950    5.2216 H         1 UNK         0.3980 
     32 H32        -5.6937   -3.9445    1.7213 H         1 UNK         0.0752 
     33 H33        -5.6796   -2.2832    2.1116 H         1 UNK         0.0752 
     34 H34        -7.7958   -2.4348    3.3864 H         1 UNK         0.0513 
     35 H35        -7.9824   -3.0833    1.7815 H         1 UNK         0.0513 
     36 H36        -7.2636   -4.7011    3.9755 H         1 UNK         0.4242 
@<TRIPOS>BOND
     1    1    2 1    
     2    1    6 1    
     3    1   17 1    
     4    1   18 1    
     5    2    3 1    
     6    2   19 1    
     7    2   20 1    
     8    3    4 1    
     9    3   14 1    
    10    4    5 1    
    11    4   21 1    
    12    4   22 1    
    13    5    6 1    
    14    5   23 1    
    15    5   24 1    
    16    6    7 1    
    17    7    8 1    
    18    7   25 1    
    19    7   26 1    
    20    8    9 1    
    21    8   27 1    
    22    8   28 1    
    23    9   10 1    
    24    9   29 1    
    25    9   30 1    
    26   10   11 2    
    27   10   12 2    
    28   10   13 1    
    29   13   31 1    
    30   14   15 1    
    31   14   32 1    
    32   14   33 1    
    33   15   16 1    
    34   15   34 1    
    35   15   35 1    
    36   16   36 1    
@<TRIPOS>SUBSTRUCTURE
     1 UNK         1 GROUP             0       ****    0 ROOT    
@<TRIPOS>MOLECULE
EPPS
36   36    1
SMALL
USER_CHARGES


@<TRIPOS>ATOM
      1 C1         -4.2667   -0.6461    3.5811 C.3       1 UNK         0.0986 
      2 C2         -5.3372   -1.7687    3.6703 C.3       1 UNK         0.1007 
      3 N3         -5.1148   -2.7773    2.6175 N.3       1 UNK        -0.7113 
      4 C4         -3.7586   -3.3372    2.7786 C.3       1 UNK         0.1007 
      5 C5         -2.6936   -2.2085    2.6942 C.3       1 UNK         0.0986 
      6 N6         -2.9060   -1.2013    3.7555 N.3       1 UNK        -0.7051 
      7 C7         -1.8688   -0.1642    3.6716 C.3       1 UNK         0.1131 
      8 C8         -1.9389    0.8571    4.8328 C.3       1 UNK        -0.1197 
      9 C9         -2.1285    0.3090    6.2773 C.3       1 UNK        -0.2881 
     10 S10        -1.0708   -1.1902    6.6724 S.3       1 UNK         1.0110 
     11 O11        -1.1228   -1.4751    8.1105 O.2       1 UNK        -0.4915 
     12 O12         0.2123   -1.1108    5.9659 O.2       1 UNK        -0.4915 
     13 O13        -1.9955   -2.3177    5.9167 O.3       1 UNK        -0.5020 
     14 C14        -6.1771   -3.8015    2.5622 C.3       1 UNK         0.0871 
     15 C15        -6.3108   -4.8133    3.7348 C.3       1 UNK         0.1330 
     16 O16        -6.8238   -4.2334    4.9268 O.3       1 UNK        -0.6627 
     17 H17        -4.4804    0.0919    4.3557 H         1 UNK         0.0691 
     18 H18        -4.3577   -0.1206    2.6272 H         1 UNK         0.0691 
     19 H19        -6.3311   -1.3297    3.5646 H         1 UNK         0.0706 
     20 H20        -5.2989   -2.2182    4.6643 H         1 UNK         0.0706 
     21 H21        -3.5620   -4.0749    1.9981 H         1 UNK         0.0706 
     22 H22        -3.6552   -3.8581    3.7328 H         1 UNK         0.0706 
     23 H23        -1.7019   -2.6551    2.7943 H         1 UNK         0.0691 
     24 H24        -2.7212   -1.7485    1.7030 H         1 UNK         0.0691 
     25 H25        -0.8783   -0.6249    3.6614 H         1 UNK         0.0626 
     26 H26        -1.9602    0.3675    2.7206 H         1 UNK         0.0626 
     27 H27        -1.0063    1.4240    4.8052 H         1 UNK         0.0883 
     28 H28        -2.6935    1.6133    4.6105 H         1 UNK         0.0883 
     29 H29        -3.1562    0.0155    6.4783 H         1 UNK         0.1467 
     30 H30        -1.8554    1.0573    7.0180 H         1 UNK         0.1467 
     31 H31        -2.3112   -1.9047    5.0650 H         1 UNK         0.3980 
     32 H32        -5.9254   -4.4059    1.6880 H         1 UNK         0.0752 
     33 H33        -7.1511   -3.4054    2.2682 H         1 UNK         0.0752 
     34 H34        -6.9916   -5.6102    3.4299 H         1 UNK         0.0513 
     35 H35        -5.3636   -5.3158    3.9340 H         1 UNK         0.0513 
     36 H36        -7.7497   -3.9924    4.7722 H         1 UNK         0.4242 
@<TRIPOS>BOND
     1    1    2 1    
     2    1    6 1    
     3    1   17 1    
     4    1   18 1    
     5    2    3 1    
     6    2   19 1    
     7    2   20 1    
     8    3    4 1    
     9    3   14 1    
    10    4    5 1    
    11    4   21 1    
    12    4   22 1    
    13    5    6 1    
    14    5   23 1    
    15    5   24 1    
    16    6    7 1    
    17    7    8 1    
    18    7   25 1    
    19    7   26 1    
    20    8    9 1    
    21    8   27 1    
    22    8   28 1    
    23    9   10 1    
    24    9   29 1    
    25    9   30 1    
    26   10   11 2    
    27   10   12 2    
    28   10   13 1    
    29   13   31 1    
    30   14   15 1    
    31   14   32 1    
    32   14   33 1    
    33   15   16 1    
    34   15   34 1    
    35   15   35 1    
    36   16   36 1    
@<TRIPOS>SUBSTRUCTURE
     1 UNK         1 GROUP             0       ****    0 ROOT    
@<TRIPOS>MOLECULE
EPPS
36   36    1
SMALL
USER_CHARGES


@<TRIPOS>ATOM
      1 C1         -4.3204   -0.3194    3.8079 C.3       1 UNK         0.0986 
      2 C2         -5.5205   -1.2902    3.9863 C.3       1 UNK         0.1007 
      3 N3         -5.5375   -2.2932    2.9033 N.3       1 UNK        -0.7113 
      4 C4         -4.2618   -3.0325    2.9246 C.3       1 UNK         0.1007 
      5 C5         -3.0669   -2.0545    2.7494 C.3       1 UNK         0.0986 
      6 N6         -3.0375   -1.0561    3.8396 N.3       1 UNK        -0.7051 
      7 C7         -1.8818   -0.1655    3.6667 C.3       1 UNK         0.1131 
      8 C8         -1.6996    0.8247    4.8424 C.3       1 UNK        -0.1197 
      9 C9         -1.8206    0.2687    6.2913 C.3       1 UNK        -0.2881 
     10 S10        -0.9440   -1.3690    6.5589 S.3       1 UNK         1.0110 
     11 O11        -0.8934   -1.6821    7.9912 O.2       1 UNK        -0.4915 
     12 O12         0.2626   -1.4446    5.7281 O.2       1 UNK        -0.4915 
     13 O13        -2.0835   -2.3414    5.8857 O.3       1 UNK        -0.5020 
     14 C14        -6.7204   -3.1767    2.9313 C.3       1 UNK         0.0871 
     15 C15        -7.0262   -3.9869    4.2224 C.3       1 UNK         0.1330 
     16 O16        -6.1215   -5.0604    4.4444 O.3       1 UNK        -0.6627 
     17 H17        -4.3564    0.4196    4.6098 H         1 UNK         0.0691 
     18 H18        -4.4298    0.2391    2.8749 H         1 UNK         0.0691 
     19 H19        -6.4495   -0.7167    3.9816 H         1 UNK         0.0706 
     20 H20        -5.4532   -1.7665    4.9667 H         1 UNK         0.0706 
     21 H21        -4.2441   -3.7724    2.1220 H         1 UNK         0.0706 
     22 H22        -4.1380   -3.5832    3.8590 H         1 UNK         0.0706 
     23 H23        -2.1400   -2.6322    2.7449 H         1 UNK         0.0691 
     24 H24        -3.1275   -1.5692    1.7718 H         1 UNK         0.0691 
     25 H25        -0.9689   -0.7544    3.5519 H         1 UNK         0.0626 
     26 H26        -1.9917    0.3987    2.7366 H         1 UNK         0.0626 
     27 H27        -0.7058    1.2621    4.7293 H         1 UNK         0.0883 
     28 H28        -2.3624    1.6808    4.7065 H         1 UNK         0.0883 
     29 H29        -2.8542    0.1110    6.5904 H         1 UNK         0.1467 
     30 H30        -1.3771    0.9535    7.0106 H         1 UNK         0.1467 
     31 H31        -2.4199   -1.8688    5.0739 H         1 UNK         0.3980 
     32 H32        -6.8226   -3.7989    2.0400 H         1 UNK         0.0752 
     33 H33        -7.5677   -2.4983    2.8102 H         1 UNK         0.0752 
     34 H34        -7.0662   -3.3369    5.0973 H         1 UNK         0.0513 
     35 H35        -8.0304   -4.4064    4.1394 H         1 UNK         0.0513 
     36 H36        -6.2697   -5.7282    3.7579 H         1 UNK         0.4242 
@<TRIPOS>BOND
     1    1    2 1    
     2    1    6 1    
     3    1   17 1    
     4    1   18 1    
     5    2    3 1    
     6    2   19 1    
     7    2   20 1    
     8    3    4 1    
     9    3   14 1    
    10    4    5 1    
    11    4   21 1    
    12    4   22 1    
    13    5    6 1    
    14    5   23 1    
    15    5   24 1    
    16    6    7 1    
    17    7    8 1    
    18    7   25 1    
    19    7   26 1    
    20    8    9 1    
    21    8   27 1    
    22    8   28 1    
    23    9   10 1    
    24    9   29 1    
    25    9   30 1    
    26   10   11 2    
    27   10   12 2    
    28   10   13 1    
    29   13   31 1    
    30   14   15 1    
    31   14   32 1    
    32   14   33 1    
    33   15   16 1    
    34   15   34 1    
    35   15   35 1    
    36   16   36 1    
@<TRIPOS>SUBSTRUCTURE
     1 UNK         1 GROUP             0       ****    0 ROOT    
@<TRIPOS>MOLECULE
EPPS
36   36    1
SMALL
USER_CHARGES


@<TRIPOS>ATOM
      1 C1         -4.3745   -0.9281    3.8608 C.3       1 UNK         0.0986 
      2 C2         -5.1214   -2.2672    4.1157 C.3       1 UNK         0.1007 
      3 N3         -4.7625   -3.2778    3.1001 N.3       1 UNK        -0.7113 
      4 C4         -3.2967   -3.4563    3.1294 C.3       1 UNK         0.1007 
      5 C5         -2.5659   -2.1114    2.8671 C.3       1 UNK         0.0986 
      6 N6         -2.9084   -1.1234    3.9096 N.3       1 UNK        -0.7051 
      7 C7         -2.1904    0.1375    3.6691 C.3       1 UNK         0.1131 
      8 C8         -2.1261    1.0159    4.9405 C.3       1 UNK        -0.1197 
      9 C9         -0.9808    0.6962    5.9463 C.3       1 UNK        -0.2881 
     10 S10        -0.8021   -1.1136    6.4348 S.3       1 UNK         1.0110 
     11 O11        -0.3442   -1.2066    7.8255 O.2       1 UNK        -0.4915 
     12 O12        -0.1228   -1.8556    5.3679 O.2       1 UNK        -0.4915 
     13 O13        -2.3862   -1.5325    6.4016 O.3       1 UNK        -0.5020 
     14 C14        -5.4249   -4.5753    3.3370 C.3       1 UNK         0.0871 
     15 C15        -6.9588   -4.6157    3.1164 C.3       1 UNK         0.1330 
     16 O16        -7.7017   -4.0289    4.1775 O.3       1 UNK        -0.6627 
     17 H17        -4.6964   -0.2072    4.6135 H         1 UNK         0.0691 
     18 H18        -4.6830   -0.5136    2.8976 H         1 UNK         0.0691 
     19 H19        -6.1904   -2.0581    4.0759 H         1 UNK         0.0706 
     20 H20        -4.9145   -2.6308    5.1251 H         1 UNK         0.0706 
     21 H21        -2.9929   -4.1724    2.3629 H         1 UNK         0.0706 
     22 H22        -2.9696   -3.8738    4.0851 H         1 UNK         0.0706 
     23 H23        -1.4893   -2.2947    2.8651 H         1 UNK         0.0691 
     24 H24        -2.8150   -1.7391    1.8700 H         1 UNK         0.0691 
     25 H25        -1.1607   -0.0938    3.3848 H         1 UNK         0.0626 
     26 H26        -2.6093    0.6941    2.8266 H         1 UNK         0.0626 
     27 H27        -2.0368    2.0601    4.6364 H         1 UNK         0.0883 
     28 H28        -3.0645    0.9530    5.4927 H         1 UNK         0.0883 
     29 H29        -1.1370    1.2267    6.8832 H         1 UNK         0.1467 
     30 H30        -0.0054    0.9971    5.5705 H         1 UNK         0.1467 
     31 H31        -2.6508   -1.4296    5.4442 H         1 UNK         0.3980 
     32 H32        -5.1411   -5.0807    4.2629 H         1 UNK         0.0752 
     33 H33        -5.0313   -5.2407    2.5649 H         1 UNK         0.0752 
     34 H34        -7.2191   -4.1492    2.1642 H         1 UNK         0.0513 
     35 H35        -7.2738   -5.6566    3.0228 H         1 UNK         0.0513 
     36 H36        -8.6442   -4.1040    3.9619 H         1 UNK         0.4242 
@<TRIPOS>BOND
     1    1    2 1    
     2    1    6 1    
     3    1   17 1    
     4    1   18 1    
     5    2    3 1    
     6    2   19 1    
     7    2   20 1    
     8    3    4 1    
     9    3   14 1    
    10    4    5 1    
    11    4   21 1    
    12    4   22 1    
    13    5    6 1    
    14    5   23 1    
    15    5   24 1    
    16    6    7 1    
    17    7    8 1    
    18    7   25 1    
    19    7   26 1    
    20    8    9 1    
    21    8   27 1    
    22    8   28 1    
    23    9   10 1    
    24    9   29 1    
    25    9   30 1    
    26   10   11 2    
    27   10   12 2    
    28   10   13 1    
    29   13   31 1    
    30   14   15 1    
    31   14   32 1    
    32   14   33 1    
    33   15   16 1    
    34   15   34 1    
    35   15   35 1    
    36   16   36 1    
@<TRIPOS>SUBSTRUCTURE
     1 UNK         1 GROUP             0       ****    0 ROOT    
@<TRIPOS>MOLECULE
EPPS
36   36    1
SMALL
USER_CHARGES


@<TRIPOS>ATOM
      1 C1         -4.7749   -0.5310    4.8595 C.3       1 UNK         0.0986 
      2 C2         -5.4385   -1.8078    5.4553 C.3       1 UNK         0.1007 
      3 N3         -5.4311   -2.9438    4.5121 N.3       1 UNK        -0.7113 
      4 C4         -4.0409   -3.1750    4.0652 C.3       1 UNK         0.1007 
      5 C5         -3.3843   -1.8961    3.4685 C.3       1 UNK         0.0986 
      6 N6         -3.3772   -0.7999    4.4621 N.3       1 UNK        -0.7051 
      7 C7         -2.7663    0.4211    3.9197 C.3       1 UNK         0.1131 
      8 C8         -1.2279    0.3319    3.7933 C.3       1 UNK        -0.1197 
      9 C9         -0.4223    0.2613    5.1211 C.3       1 UNK        -0.2881 
     10 S10        -0.4591   -1.4219    5.9538 S.3       1 UNK         1.0110 
     11 O11         0.4462   -1.4230    7.1082 O.2       1 UNK        -0.4915 
     12 O12        -0.4004   -2.4879    4.9483 O.2       1 UNK        -0.4915 
     13 O13        -1.9906   -1.3603    6.5333 O.3       1 UNK        -0.5020 
     14 C14        -6.4312   -2.7837    3.4349 C.3       1 UNK         0.0871 
     15 C15        -6.6237   -4.0069    2.5029 C.3       1 UNK         0.1330 
     16 O16        -7.1909   -5.1200    3.1824 O.3       1 UNK        -0.6627 
     17 H17        -4.7984    0.2547    5.6178 H         1 UNK         0.0691 
     18 H18        -5.3615   -0.1536    4.0187 H         1 UNK         0.0691 
     19 H19        -6.4614   -1.5780    5.7606 H         1 UNK         0.0706 
     20 H20        -4.9213   -2.0946    6.3735 H         1 UNK         0.0706 
     21 H21        -3.9909   -3.9872    3.3398 H         1 UNK         0.0706 
     22 H22        -3.4464   -3.5218    4.9132 H         1 UNK         0.0706 
     23 H23        -2.3663   -2.1489    3.1705 H         1 UNK         0.0691 
     24 H24        -3.8956   -1.5962    2.5511 H         1 UNK         0.0691 
     25 H25        -3.2113    0.6899    2.9580 H         1 UNK         0.0626 
     26 H26        -2.9870    1.2546    4.5915 H         1 UNK         0.0626 
     27 H27        -0.9338   -0.4679    3.1127 H         1 UNK         0.0883 
     28 H28        -0.9136    1.2406    3.2768 H         1 UNK         0.0883 
     29 H29        -0.7734    0.9748    5.8633 H         1 UNK         0.1467 
     30 H30         0.6328    0.4600    4.9464 H         1 UNK         0.1467 
     31 H31        -2.5694   -1.1852    5.7370 H         1 UNK         0.3980 
     32 H32        -6.1012   -1.9637    2.7949 H         1 UNK         0.0752 
     33 H33        -7.4056   -2.4353    3.7841 H         1 UNK         0.0752 
     34 H34        -5.6927   -4.2919    2.0117 H         1 UNK         0.0513 
     35 H35        -7.2968   -3.7265    1.6906 H         1 UNK         0.0513 
     36 H36        -7.2799   -5.8481    2.5479 H         1 UNK         0.4242 
@<TRIPOS>BOND
     1    1    2 1    
     2    1    6 1    
     3    1   17 1    
     4    1   18 1    
     5    2    3 1    
     6    2   19 1    
     7    2   20 1    
     8    3    4 1    
     9    3   14 1    
    10    4    5 1    
    11    4   21 1    
    12    4   22 1    
    13    5    6 1    
    14    5   23 1    
    15    5   24 1    
    16    6    7 1    
    17    7    8 1    
    18    7   25 1    
    19    7   26 1    
    20    8    9 1    
    21    8   27 1    
    22    8   28 1    
    23    9   10 1    
    24    9   29 1    
    25    9   30 1    
    26   10   11 2    
    27   10   12 2    
    28   10   13 1    
    29   13   31 1    
    30   14   15 1    
    31   14   32 1    
    32   14   33 1    
    33   15   16 1    
    34   15   34 1    
    35   15   35 1    
    36   16   36 1    
@<TRIPOS>SUBSTRUCTURE
     1 UNK         1 GROUP             0       ****    0 ROOT    
@<TRIPOS>MOLECULE
EPPS
36   36    1
SMALL
USER_CHARGES


@<TRIPOS>ATOM
      1 C1         -4.2543   -1.2067    4.6457 C.3       1 UNK         0.0986 
      2 C2         -4.6506   -2.6916    4.8916 C.3       1 UNK         0.1007 
      3 N3         -4.7829   -3.4594    3.6350 N.3       1 UNK        -0.7113 
      4 C4         -3.5280   -3.3255    2.8686 C.3       1 UNK         0.1007 
      5 C5         -3.1284   -1.8392    2.6295 C.3       1 UNK         0.0986 
      6 N6         -2.9721   -1.1224    3.9123 N.3       1 UNK        -0.7051 
      7 C7         -2.5791    0.2711    3.6636 C.3       1 UNK         0.1131 
      8 C8         -2.0684    0.9983    4.9290 C.3       1 UNK        -0.1197 
      9 C9         -0.7214    0.4992    5.5237 C.3       1 UNK        -0.2881 
     10 S10        -0.8555   -1.1058    6.4902 S.3       1 UNK         1.0110 
     11 O11        -2.1049   -1.1341    7.2577 O.2       1 UNK        -0.4915 
     12 O12         0.4298   -1.4073    7.1298 O.2       1 UNK        -0.4915 
     13 O13        -1.0216   -2.1279    5.2202 O.3       1 UNK        -0.5020 
     14 C14        -5.9745   -3.1476    2.8171 C.3       1 UNK         0.0871 
     15 C15        -7.3452   -3.4338    3.4813 C.3       1 UNK         0.1330 
     16 O16        -7.5644   -4.8232    3.6913 O.3       1 UNK        -0.6627 
     17 H17        -4.1730   -0.7157    5.6160 H         1 UNK         0.0691 
     18 H18        -5.0506   -0.6815    4.1137 H         1 UNK         0.0691 
     19 H19        -5.5685   -2.7357    5.4778 H         1 UNK         0.0706 
     20 H20        -3.8947   -3.1656    5.5215 H         1 UNK         0.0706 
     21 H21        -3.6163   -3.8378    1.9083 H         1 UNK         0.0706 
     22 H22        -2.7228   -3.8405    3.3969 H         1 UNK         0.0706 
     23 H23        -2.1852   -1.8208    2.0791 H         1 UNK         0.0691 
     24 H24        -3.8606   -1.3465    1.9855 H         1 UNK         0.0691 
     25 H25        -1.7655    0.2836    2.9339 H         1 UNK         0.0626 
     26 H26        -3.3964    0.8347    3.2059 H         1 UNK         0.0626 
     27 H27        -1.9237    2.0411    4.6411 H         1 UNK         0.0883 
     28 H28        -2.8423    1.0461    5.6959 H         1 UNK         0.0883 
     29 H29        -0.3212    1.2177    6.2357 H         1 UNK         0.1467 
     30 H30         0.0373    0.3324    4.7622 H         1 UNK         0.1467 
     31 H31        -1.8094   -1.7880    4.7067 H         1 UNK         0.3980 
     32 H32        -5.9542   -3.5907    1.8191 H         1 UNK         0.0752 
     33 H33        -5.9590   -2.0779    2.6024 H         1 UNK         0.0752 
     34 H34        -7.4661   -2.8818    4.4140 H         1 UNK         0.0513 
     35 H35        -8.1362   -3.0607    2.8282 H         1 UNK         0.0513 
     36 H36        -8.4315   -4.9322    4.1120 H         1 UNK         0.4242 
@<TRIPOS>BOND
     1    1    2 1    
     2    1    6 1    
     3    1   17 1    
     4    1   18 1    
     5    2    3 1    
     6    2   19 1    
     7    2   20 1    
     8    3    4 1    
     9    3   14 1    
    10    4    5 1    
    11    4   21 1    
    12    4   22 1    
    13    5    6 1    
    14    5   23 1    
    15    5   24 1    
    16    6    7 1    
    17    7    8 1    
    18    7   25 1    
    19    7   26 1    
    20    8    9 1    
    21    8   27 1    
    22    8   28 1    
    23    9   10 1    
    24    9   29 1    
    25    9   30 1    
    26   10   11 2    
    27   10   12 2    
    28   10   13 1    
    29   13   31 1    
    30   14   15 1    
    31   14   32 1    
    32   14   33 1    
    33   15   16 1    
    34   15   34 1    
    35   15   35 1    
    36   16   36 1    
@<TRIPOS>SUBSTRUCTURE
     1 UNK         1 GROUP             0       ****    0 ROOT    
@<TRIPOS>MOLECULE
EPPS
36   36    1
SMALL
USER_CHARGES


@<TRIPOS>ATOM
      1 C1         -4.5276   -0.2544    4.5895 C.3       1 UNK         0.0986 
      2 C2         -5.4791   -1.3797    5.0807 C.3       1 UNK         0.1007 
      3 N3         -5.7404   -2.3590    4.0067 N.3       1 UNK        -0.7113 
      4 C4         -4.4436   -2.9101    3.5634 C.3       1 UNK         0.1007 
      5 C5         -3.4878   -1.7800    3.0896 C.3       1 UNK         0.0986 
      6 N6         -3.2231   -0.8199    4.1803 N.3       1 UNK        -0.7051 
      7 C7         -2.3035    0.2310    3.7188 C.3       1 UNK         0.1131 
      8 C8         -1.6238    0.9610    4.9008 C.3       1 UNK        -0.1197 
      9 C9         -0.3533    0.2837    5.4947 C.3       1 UNK        -0.2881 
     10 S10        -0.5185   -1.5464    5.9065 S.3       1 UNK         1.0110 
     11 O11         0.3017   -1.8641    7.0806 O.2       1 UNK        -0.4915 
     12 O12        -0.4203   -2.3461    4.6813 O.2       1 UNK        -0.4915 
     13 O13        -2.0881   -1.5491    6.3781 O.3       1 UNK        -0.5020 
     14 C14        -6.6585   -3.4038    4.5008 C.3       1 UNK         0.0871 
     15 C15        -7.2139   -4.3900    3.4417 C.3       1 UNK         0.1330 
     16 O16        -6.2782   -5.3849    3.0454 O.3       1 UNK        -0.6627 
     17 H17        -4.4037    0.4690    5.3965 H         1 UNK         0.0691 
     18 H18        -4.9958    0.2911    3.7660 H         1 UNK         0.0691 
     19 H19        -6.4171   -0.9247    5.4059 H         1 UNK         0.0706 
     20 H20        -5.0536   -1.8661    5.9622 H         1 UNK         0.0706 
     21 H21        -4.5908   -3.5879    2.7226 H         1 UNK         0.0706 
     22 H22        -3.9720   -3.4966    4.3555 H         1 UNK         0.0706 
     23 H23        -2.5515   -2.2341    2.7581 H         1 UNK         0.0691 
     24 H24        -3.9101   -1.2787    2.2149 H         1 UNK         0.0691 
     25 H25        -1.5100   -0.2320    3.1266 H         1 UNK         0.0626 
     26 H26        -2.7944    0.9404    3.0475 H         1 UNK         0.0626 
     27 H27        -1.3595    1.9700    4.5800 H         1 UNK         0.0883 
     28 H28        -2.3299    1.0922    5.7217 H         1 UNK         0.0883 
     29 H29        -0.0706    0.7588    6.4317 H         1 UNK         0.1467 
     30 H30         0.5040    0.3594    4.8296 H         1 UNK         0.1467 
     31 H31        -2.5963   -1.3056    5.5537 H         1 UNK         0.3980 
     32 H32        -7.5434   -2.8641    4.8463 H         1 UNK         0.0752 
     33 H33        -6.3261   -3.9287    5.3994 H         1 UNK         0.0752 
     34 H34        -8.0866   -4.8977    3.8565 H         1 UNK         0.0513 
     35 H35        -7.5843   -3.8454    2.5709 H         1 UNK         0.0513 
     36 H36        -6.7080   -5.9587    2.3925 H         1 UNK         0.4242 
@<TRIPOS>BOND
     1    1    2 1    
     2    1    6 1    
     3    1   17 1    
     4    1   18 1    
     5    2    3 1    
     6    2   19 1    
     7    2   20 1    
     8    3    4 1    
     9    3   14 1    
    10    4    5 1    
    11    4   21 1    
    12    4   22 1    
    13    5    6 1    
    14    5   23 1    
    15    5   24 1    
    16    6    7 1    
    17    7    8 1    
    18    7   25 1    
    19    7   26 1    
    20    8    9 1    
    21    8   27 1    
    22    8   28 1    
    23    9   10 1    
    24    9   29 1    
    25    9   30 1    
    26   10   11 2    
    27   10   12 2    
    28   10   13 1    
    29   13   31 1    
    30   14   15 1    
    31   14   32 1    
    32   14   33 1    
    33   15   16 1    
    34   15   34 1    
    35   15   35 1    
    36   16   36 1    
@<TRIPOS>SUBSTRUCTURE
     1 UNK         1 GROUP             0       ****    0 ROOT    
@<TRIPOS>MOLECULE
EPPS
36   36    1
SMALL
USER_CHARGES


@<TRIPOS>ATOM
      1 C1         -4.7322   -0.9626    4.4261 C.3       1 UNK         0.0986 
      2 C2         -5.2542   -2.3505    4.9004 C.3       1 UNK         0.1007 
      3 N3         -4.8785   -3.4439    3.9788 N.3       1 UNK        -0.7113 
      4 C4         -3.4142   -3.4182    3.7914 C.3       1 UNK         0.1007 
      5 C5         -2.8961   -2.0278    3.3192 C.3       1 UNK         0.0986 
      6 N6         -3.2608   -0.9737    4.2913 N.3       1 UNK        -0.7051 
      7 C7         -2.7862    0.3488    3.8623 C.3       1 UNK         0.1131 
      8 C8         -1.2588    0.5313    4.0184 C.3       1 UNK        -0.1197 
      9 C9         -0.7059    0.5657    5.4711 C.3       1 UNK        -0.2881 
     10 S10        -0.5938   -1.1206    6.2909 S.3       1 UNK         1.0110 
     11 O11         0.0744   -0.9955    7.5909 O.2       1 UNK        -0.4915 
     12 O12        -0.1673   -2.1315    5.3178 O.2       1 UNK        -0.4915 
     13 O13        -2.1911   -1.3437    6.5814 O.3       1 UNK        -0.5020 
     14 C14        -5.6075   -3.4751    2.6928 C.3       1 UNK         0.0871 
     15 C15        -7.1392   -3.6914    2.7886 C.3       1 UNK         0.1330 
     16 O16        -7.4727   -4.9854    3.2753 O.3       1 UNK        -0.6627 
     17 H17        -5.0294   -0.2133    5.1632 H         1 UNK         0.0691 
     18 H18        -5.2158   -0.6706    3.4911 H         1 UNK         0.0691 
     19 H19        -6.3343   -2.3089    5.0416 H         1 UNK         0.0706 
     20 H20        -4.8515   -2.5667    5.8923 H         1 UNK         0.0706 
     21 H21        -3.1127   -4.1826    3.0723 H         1 UNK         0.0706 
     22 H22        -2.9225   -3.6928    4.7271 H         1 UNK         0.0706 
     23 H23        -1.8128   -2.0914    3.2115 H         1 UNK         0.0691 
     24 H24        -3.2803   -1.7968    2.3230 H         1 UNK         0.0691 
     25 H25        -3.0907    0.5615    2.8341 H         1 UNK         0.0626 
     26 H26        -3.2671    1.1132    4.4779 H         1 UNK         0.0626 
     27 H27        -0.7111   -0.1865    3.4068 H         1 UNK         0.0883 
     28 H28        -1.0211    1.4944    3.5632 H         1 UNK         0.0883 
     29 H29        -1.3055    1.1860    6.1337 H         1 UNK         0.1467 
     30 H30         0.3114    0.9504    5.4907 H         1 UNK         0.1467 
     31 H31        -2.6388   -1.2495    5.6923 H         1 UNK         0.3980 
     32 H32        -5.1869   -4.1695    1.9623 H         1 UNK         0.0752 
     33 H33        -5.4676   -2.5072    2.2086 H         1 UNK         0.0752 
     34 H34        -7.5720   -3.5817    1.7925 H         1 UNK         0.0513 
     35 H35        -7.6200   -2.9200    3.3912 H         1 UNK         0.0513 
     36 H36        -8.4394   -5.0528    3.3164 H         1 UNK         0.4242 
@<TRIPOS>BOND
     1    1    2 1    
     2    1    6 1    
     3    1   17 1    
     4    1   18 1    
     5    2    3 1    
     6    2   19 1    
     7    2   20 1    
     8    3    4 1    
     9    3   14 1    
    10    4    5 1    
    11    4   21 1    
    12    4   22 1    
    13    5    6 1    
    14    5   23 1    
    15    5   24 1    
    16    6    7 1    
    17    7    8 1    
    18    7   25 1    
    19    7   26 1    
    20    8    9 1    
    21    8   27 1    
    22    8   28 1    
    23    9   10 1    
    24    9   29 1    
    25    9   30 1    
    26   10   11 2    
    27   10   12 2    
    28   10   13 1    
    29   13   31 1    
    30   14   15 1    
    31   14   32 1    
    32   14   33 1    
    33   15   16 1    
    34   15   34 1    
    35   15   35 1    
    36   16   36 1    
@<TRIPOS>SUBSTRUCTURE
     1 UNK         1 GROUP             0       ****    0 ROOT    
@<TRIPOS>MOLECULE
EPPS
36   36    1
SMALL
USER_CHARGES


@<TRIPOS>ATOM
      1 C1         -4.1259   -2.5623    5.3753 C.3       1 UNK         0.0986 
      2 C2         -5.5315   -2.4406    4.7160 C.3       1 UNK         0.1007 
      3 N3         -5.4965   -2.8881    3.3075 N.3       1 UNK        -0.7113 
      4 C4         -4.4933   -2.0849    2.5825 C.3       1 UNK         0.1007 
      5 C5         -3.0911   -2.2167    3.2437 C.3       1 UNK         0.0986 
      6 N6         -3.0832   -1.7933    4.6620 N.3       1 UNK        -0.7051 
      7 C7         -3.2162   -0.3430    4.8749 C.3       1 UNK         0.1131 
      8 C8         -2.0412    0.4676    4.2776 C.3       1 UNK        -0.1197 
      9 C9         -0.5943   -0.0421    4.5407 C.3       1 UNK        -0.2881 
     10 S10        -0.2871   -0.5897    6.3091 S.3       1 UNK         1.0110 
     11 O11        -1.0705    0.2290    7.2407 O.2       1 UNK        -0.4915 
     12 O12         1.1472   -0.8115    6.5233 O.2       1 UNK        -0.4915 
     13 O13        -1.0006   -2.0657    6.2097 O.3       1 UNK        -0.5020 
     14 C14        -6.8067   -2.7698    2.6375 C.3       1 UNK         0.0871 
     15 C15        -7.8810   -3.7427    3.1755 C.3       1 UNK         0.1330 
     16 O16        -7.4478   -5.0800    2.9910 O.3       1 UNK        -0.6627 
     17 H17        -3.8357   -3.6145    5.4172 H         1 UNK         0.0691 
     18 H18        -4.1869   -2.2393    6.4168 H         1 UNK         0.0691 
     19 H19        -5.9032   -1.4169    4.7976 H         1 UNK         0.0706 
     20 H20        -6.2222   -3.0589    5.2906 H         1 UNK         0.0706 
     21 H21        -4.7894   -1.0350    2.5267 H         1 UNK         0.0706 
     22 H22        -4.4215   -2.4328    1.5499 H         1 UNK         0.0706 
     23 H23        -2.7571   -3.2544    3.1764 H         1 UNK         0.0691 
     24 H24        -2.3632   -1.6479    2.6638 H         1 UNK         0.0691 
     25 H25        -4.1507    0.0167    4.4395 H         1 UNK         0.0626 
     26 H26        -3.2887   -0.1317    5.9440 H         1 UNK         0.0626 
     27 H27        -2.2045    0.6165    3.2090 H         1 UNK         0.0883 
     28 H28        -2.1231    1.4783    4.6821 H         1 UNK         0.0883 
     29 H29         0.1363    0.7410    4.3508 H         1 UNK         0.1467 
     30 H30        -0.3310   -0.8890    3.9115 H         1 UNK         0.1467 
     31 H31        -1.8218   -1.9502    5.6563 H         1 UNK         0.3980 
     32 H32        -6.7598   -2.8497    1.5487 H         1 UNK         0.0752 
     33 H33        -7.1817   -1.7549    2.7916 H         1 UNK         0.0752 
     34 H34        -8.8191   -3.5932    2.6384 H         1 UNK         0.0513 
     35 H35        -8.1046   -3.5528    4.2259 H         1 UNK         0.0513 
     36 H36        -6.5207   -5.0923    3.2820 H         1 UNK         0.4242 
@<TRIPOS>BOND
     1    1    2 1    
     2    1    6 1    
     3    1   17 1    
     4    1   18 1    
     5    2    3 1    
     6    2   19 1    
     7    2   20 1    
     8    3    4 1    
     9    3   14 1    
    10    4    5 1    
    11    4   21 1    
    12    4   22 1    
    13    5    6 1    
    14    5   23 1    
    15    5   24 1    
    16    6    7 1    
    17    7    8 1    
    18    7   25 1    
    19    7   26 1    
    20    8    9 1    
    21    8   27 1    
    22    8   28 1    
    23    9   10 1    
    24    9   29 1    
    25    9   30 1    
    26   10   11 2    
    27   10   12 2    
    28   10   13 1    
    29   13   31 1    
    30   14   15 1    
    31   14   32 1    
    32   14   33 1    
    33   15   16 1    
    34   15   34 1    
    35   15   35 1    
    36   16   36 1    
@<TRIPOS>SUBSTRUCTURE
     1 UNK         1 GROUP             0       ****    0 ROOT    
@<TRIPOS>MOLECULE
EPPS
36   36    1
SMALL
USER_CHARGES


@<TRIPOS>ATOM
      1 C1         -4.6088   -0.7290    5.1238 C.3       1 UNK         0.0986 
      2 C2         -5.3118   -2.1137    5.1612 C.3       1 UNK         0.1007 
      3 N3         -5.5128   -2.6417    3.7965 N.3       1 UNK        -0.7113 
      4 C4         -4.1887   -2.7327    3.1435 C.3       1 UNK         0.1007 
      5 C5         -3.4867   -1.3469    3.1146 C.3       1 UNK         0.0986 
      6 N6         -3.2802   -0.8342    4.4861 N.3       1 UNK        -0.7051 
      7 C7         -2.6206    0.4787    4.4939 C.3       1 UNK         0.1131 
      8 C8         -1.1679    0.4293    3.9615 C.3       1 UNK        -0.1197 
      9 C9         -0.2419   -0.7141    4.4698 C.3       1 UNK        -0.2881 
     10 S10        -0.3654   -1.0368    6.3145 S.3       1 UNK         1.0110 
     11 O11        -0.6295    0.2131    7.0355 O.2       1 UNK        -0.4915 
     12 O12         0.7112   -1.9385    6.7387 O.2       1 UNK        -0.4915 
     13 O13        -1.7553   -1.9114    6.2924 O.3       1 UNK        -0.5020 
     14 C14        -6.2118   -3.9390    3.8590 C.3       1 UNK         0.0871 
     15 C15        -6.6537   -4.4367    2.4624 C.3       1 UNK         0.1330 
     16 O16        -7.4028   -5.6368    2.5810 O.3       1 UNK        -0.6627 
     17 H17        -4.5064   -0.3603    6.1468 H         1 UNK         0.0691 
     18 H18        -5.2421   -0.0071    4.6017 H         1 UNK         0.0691 
     19 H19        -6.2749   -2.0008    5.6633 H         1 UNK         0.0706 
     20 H20        -4.7285   -2.8086    5.7707 H         1 UNK         0.0706 
     21 H21        -4.2915   -3.0751    2.1134 H         1 UNK         0.0706 
     22 H22        -3.5501   -3.4621    3.6478 H         1 UNK         0.0706 
     23 H23        -2.5308   -1.4584    2.6005 H         1 UNK         0.0691 
     24 H24        -4.0736   -0.6456    2.5163 H         1 UNK         0.0691 
     25 H25        -3.1998    1.1822    3.8897 H         1 UNK         0.0626 
     26 H26        -2.6154    0.8894    5.5062 H         1 UNK         0.0626 
     27 H27        -1.1764    0.4557    2.8707 H         1 UNK         0.0883 
     28 H28        -0.7067    1.3824    4.2275 H         1 UNK         0.0883 
     29 H29         0.8045   -0.4789    4.2882 H         1 UNK         0.1467 
     30 H30        -0.4488   -1.6637    3.9819 H         1 UNK         0.1467 
     31 H31        -2.3593   -1.4712    5.6315 H         1 UNK         0.3980 
     32 H32        -7.1038   -3.7916    4.4723 H         1 UNK         0.0752 
     33 H33        -5.5375   -4.6635    4.3227 H         1 UNK         0.0752 
     34 H34        -7.2543   -3.6793    1.9545 H         1 UNK         0.0513 
     35 H35        -5.7921   -4.6400    1.8256 H         1 UNK         0.0513 
     36 H36        -8.2766   -5.4148    2.9395 H         1 UNK         0.4242 
@<TRIPOS>BOND
     1    1    2 1    
     2    1    6 1    
     3    1   17 1    
     4    1   18 1    
     5    2    3 1    
     6    2   19 1    
     7    2   20 1    
     8    3    4 1    
     9    3   14 1    
    10    4    5 1    
    11    4   21 1    
    12    4   22 1    
    13    5    6 1    
    14    5   23 1    
    15    5   24 1    
    16    6    7 1    
    17    7    8 1    
    18    7   25 1    
    19    7   26 1    
    20    8    9 1    
    21    8   27 1    
    22    8   28 1    
    23    9   10 1    
    24    9   29 1    
    25    9   30 1    
    26   10   11 2    
    27   10   12 2    
    28   10   13 1    
    29   13   31 1    
    30   14   15 1    
    31   14   32 1    
    32   14   33 1    
    33   15   16 1    
    34   15   34 1    
    35   15   35 1    
    36   16   36 1    
@<TRIPOS>SUBSTRUCTURE
     1 UNK         1 GROUP             0       ****    0 ROOT    
@<TRIPOS>MOLECULE
EPPS
36   36    1
SMALL
USER_CHARGES


@<TRIPOS>ATOM
      1 C1         -4.3192   -0.6914    4.2075 C.3       1 UNK         0.0986 
      2 C2         -5.2315   -1.9232    4.4614 C.3       1 UNK         0.1007 
      3 N3         -5.1659   -2.8727    3.3290 N.3       1 UNK        -0.7113 
      4 C4         -3.7558   -3.2765    3.1553 C.3       1 UNK         0.1007 
      5 C5         -2.8505   -2.0398    2.9026 C.3       1 UNK         0.0986 
      6 N6         -2.9091   -1.1063    4.0463 N.3       1 UNK        -0.7051 
      7 C7         -2.0194    0.0368    3.8002 C.3       1 UNK         0.1131 
      8 C8         -1.9209    0.9981    5.0094 C.3       1 UNK        -0.1197 
      9 C9         -1.7266    0.3760    6.4231 C.3       1 UNK        -0.2881 
     10 S10        -0.4699   -1.0167    6.4807 S.3       1 UNK         1.0110 
     11 O11        -0.1688   -1.3628    7.8741 O.2       1 UNK        -0.4915 
     12 O12         0.6072   -0.7733    5.5151 O.2       1 UNK        -0.4915 
     13 O13        -1.4304   -2.2050    5.8783 O.3       1 UNK        -0.5020 
     14 C14        -6.0079   -4.0665    3.5323 C.3       1 UNK         0.0871 
     15 C15        -7.5183   -3.7341    3.4921 C.3       1 UNK         0.1330 
     16 O16        -8.2875   -4.9227    3.5974 O.3       1 UNK        -0.6627 
     17 H17        -4.4225   -0.0093    5.0527 H         1 UNK         0.0691 
     18 H18        -4.6710   -0.1433    3.3298 H         1 UNK         0.0691 
     19 H19        -6.2504   -1.5599    4.5993 H         1 UNK         0.0706 
     20 H20        -4.9484   -2.4081    5.3989 H         1 UNK         0.0706 
     21 H21        -3.6639   -3.9541    2.3039 H         1 UNK         0.0706 
     22 H22        -3.3937   -3.8286    4.0263 H         1 UNK         0.0706 
     23 H23        -1.8247   -2.3820    2.7491 H         1 UNK         0.0691 
     24 H24        -3.1493   -1.5467    1.9739 H         1 UNK         0.0691 
     25 H25        -1.0181   -0.3163    3.5431 H         1 UNK         0.0626 
     26 H26        -2.3724    0.5934    2.9278 H         1 UNK         0.0626 
     27 H27        -1.0763    1.6609    4.8119 H         1 UNK         0.0883 
     28 H28        -2.7739    1.6785    5.0070 H         1 UNK         0.0883 
     29 H29        -2.6498   -0.0327    6.8272 H         1 UNK         0.1467 
     30 H30        -1.3654    1.1192    7.1305 H         1 UNK         0.1467 
     31 H31        -1.9663   -1.7942    5.1438 H         1 UNK         0.3980 
     32 H32        -5.7428   -4.5061    4.4972 H         1 UNK         0.0752 
     33 H33        -5.7837   -4.7576    2.7165 H         1 UNK         0.0752 
     34 H34        -7.7996   -3.0776    4.3161 H         1 UNK         0.0513 
     35 H35        -7.7748   -3.2134    2.5673 H         1 UNK         0.0513 
     36 H36        -8.2216   -5.4021    2.7566 H         1 UNK         0.4242 
@<TRIPOS>BOND
     1    1    2 1    
     2    1    6 1    
     3    1   17 1    
     4    1   18 1    
     5    2    3 1    
     6    2   19 1    
     7    2   20 1    
     8    3    4 1    
     9    3   14 1    
    10    4    5 1    
    11    4   21 1    
    12    4   22 1    
    13    5    6 1    
    14    5   23 1    
    15    5   24 1    
    16    6    7 1    
    17    7    8 1    
    18    7   25 1    
    19    7   26 1    
    20    8    9 1    
    21    8   27 1    
    22    8   28 1    
    23    9   10 1    
    24    9   29 1    
    25    9   30 1    
    26   10   11 2    
    27   10   12 2    
    28   10   13 1    
    29   13   31 1    
    30   14   15 1    
    31   14   32 1    
    32   14   33 1    
    33   15   16 1    
    34   15   34 1    
    35   15   35 1    
    36   16   36 1    
@<TRIPOS>SUBSTRUCTURE
     1 UNK         1 GROUP             0       ****    0 ROOT    
@<TRIPOS>MOLECULE
EPPS
36   36    1
SMALL
USER_CHARGES


@<TRIPOS>ATOM
      1 C1         -4.5425   -0.5444    4.7382 C.3       1 UNK         0.0986 
      2 C2         -5.3254   -1.7960    5.2221 C.3       1 UNK         0.1007 
      3 N3         -5.4922   -2.7702    4.1262 N.3       1 UNK        -0.7113 
      4 C4         -4.1533   -3.1365    3.6190 C.3       1 UNK         0.1007 
      5 C5         -3.3746   -1.8766    3.1492 C.3       1 UNK         0.0986 
      6 N6         -3.1931   -0.9239    4.2634 N.3       1 UNK        -0.7051 
      7 C7         -2.4351    0.2510    3.8067 C.3       1 UNK         0.1131 
      8 C8         -1.8113    1.0301    4.9882 C.3       1 UNK        -0.1197 
      9 C9         -0.4434    0.5068    5.5180 C.3       1 UNK        -0.2881 
     10 S10        -0.3584   -1.3393    5.8795 S.3       1 UNK         1.0110 
     11 O11         0.5374   -1.5789    7.0164 O.2       1 UNK        -0.4915 
     12 O12        -0.2030   -2.0881    4.6283 O.2       1 UNK        -0.4915 
     13 O13        -1.8966   -1.5563    6.4015 O.3       1 UNK        -0.5020 
     14 C14        -6.2656   -3.9331    4.6050 C.3       1 UNK         0.0871 
     15 C15        -6.6379   -4.9889    3.5325 C.3       1 UNK         0.1330 
     16 O16        -7.5604   -4.4845    2.5748 O.3       1 UNK        -0.6627 
     17 H17        -4.4802    0.1636    5.5657 H         1 UNK         0.0691 
     18 H18        -5.1078   -0.0379    3.9517 H         1 UNK         0.0691 
     19 H19        -6.3044   -1.4770    5.5858 H         1 UNK         0.0706 
     20 H20        -4.8133   -2.2468    6.0759 H         1 UNK         0.0706 
     21 H21        -4.2426   -3.8114    2.7671 H         1 UNK         0.0706 
     22 H22        -3.5758   -3.6702    4.3777 H         1 UNK         0.0706 
     23 H23        -2.4015   -2.1923    2.7668 H         1 UNK         0.0691 
     24 H24        -3.8954   -1.4090    2.3096 H         1 UNK         0.0691 
     25 H25        -1.6112   -0.0875    3.1732 H         1 UNK         0.0626 
     26 H26        -3.0386    0.9090    3.1760 H         1 UNK         0.0626 
     27 H27        -1.6900    2.0730    4.6905 H         1 UNK         0.0883 
     28 H28        -2.4977    1.0474    5.8355 H         1 UNK         0.0883 
     29 H29        -0.1887    0.9901    6.4587 H         1 UNK         0.1467 
     30 H30         0.3717    0.7090    4.8267 H         1 UNK         0.1467 
     31 H31        -2.4610   -1.3587    5.6017 H         1 UNK         0.3980 
     32 H32        -7.1558   -3.6702    5.1809 H         1 UNK         0.0752 
     33 H33        -5.6466   -4.4499    5.3427 H         1 UNK         0.0752 
     34 H34        -7.0976   -5.8457    4.0284 H         1 UNK         0.0513 
     35 H35        -5.7534   -5.3910    3.0371 H         1 UNK         0.0513 
     36 H36        -7.7460   -5.1888    1.9344 H         1 UNK         0.4242 
@<TRIPOS>BOND
     1    1    2 1    
     2    1    6 1    
     3    1   17 1    
     4    1   18 1    
     5    2    3 1    
     6    2   19 1    
     7    2   20 1    
     8    3    4 1    
     9    3   14 1    
    10    4    5 1    
    11    4   21 1    
    12    4   22 1    
    13    5    6 1    
    14    5   23 1    
    15    5   24 1    
    16    6    7 1    
    17    7    8 1    
    18    7   25 1    
    19    7   26 1    
    20    8    9 1    
    21    8   27 1    
    22    8   28 1    
    23    9   10 1    
    24    9   29 1    
    25    9   30 1    
    26   10   11 2    
    27   10   12 2    
    28   10   13 1    
    29   13   31 1    
    30   14   15 1    
    31   14   32 1    
    32   14   33 1    
    33   15   16 1    
    34   15   34 1    
    35   15   35 1    
    36   16   36 1    
@<TRIPOS>SUBSTRUCTURE
     1 UNK         1 GROUP             0       ****    0 ROOT    
@<TRIPOS>MOLECULE
EPPS
36   36    1
SMALL
USER_CHARGES


@<TRIPOS>ATOM
      1 C1         -3.8654   -2.0090    5.1046 C.3       1 UNK         0.0986 
      2 C2         -5.2378   -2.0419    4.3698 C.3       1 UNK         0.1007 
      3 N3         -5.2124   -2.9929    3.2396 N.3       1 UNK        -0.7113 
      4 C4         -4.1186   -2.6158    2.3243 C.3       1 UNK         0.1007 
      5 C5         -2.7518   -2.5922    3.0684 C.3       1 UNK         0.0986 
      6 N6         -2.7358   -1.6568    4.2139 N.3       1 UNK        -0.7051 
      7 C7         -2.7191   -0.2491    3.7847 C.3       1 UNK         0.1131 
      8 C8         -2.3428    0.7365    4.9148 C.3       1 UNK        -0.1197 
      9 C9         -0.8800    0.6729    5.4373 C.3       1 UNK        -0.2881 
     10 S10        -0.5345   -0.7793    6.5767 S.3       1 UNK         1.0110 
     11 O11        -1.6846   -1.0213    7.4542 O.2       1 UNK        -0.4915 
     12 O12         0.8219   -0.6671    7.1243 O.2       1 UNK        -0.4915 
     13 O13        -0.5078   -1.9617    5.4422 O.3       1 UNK        -0.5020 
     14 C14        -6.4885   -3.0436    2.4987 C.3       1 UNK         0.0871 
     15 C15        -7.7175   -3.5527    3.2949 C.3       1 UNK         0.1330 
     16 O16        -7.6040   -4.9266    3.6445 O.3       1 UNK        -0.6627 
     17 H17        -3.6762   -2.9863    5.5544 H         1 UNK         0.0691 
     18 H18        -3.9276   -1.3205    5.9478 H         1 UNK         0.0691 
     19 H19        -5.5197   -1.0398    4.0399 H         1 UNK         0.0706 
     20 H20        -5.9926   -2.3457    5.0961 H         1 UNK         0.0706 
     21 H21        -4.3105   -1.6484    1.8548 H         1 UNK         0.0706 
     22 H22        -4.0561   -3.3400    1.5094 H         1 UNK         0.0706 
     23 H23        -2.5116   -3.5991    3.4171 H         1 UNK         0.0691 
     24 H24        -1.9591   -2.3372    2.3619 H         1 UNK         0.0691 
     25 H25        -1.9711   -0.1371    2.9961 H         1 UNK         0.0626 
     26 H26        -3.6679    0.0458    3.3320 H         1 UNK         0.0626 
     27 H27        -2.4935    1.7377    4.5071 H         1 UNK         0.0883 
     28 H28        -3.0545    0.6813    5.7393 H         1 UNK         0.0883 
     29 H29        -0.6405    1.5525    6.0307 H         1 UNK         0.1467 
     30 H30        -0.1497    0.6086    4.6338 H         1 UNK         0.1467 
     31 H31        -1.3861   -1.8975    4.9700 H         1 UNK         0.3980 
     32 H32        -6.4293   -3.5722    1.5445 H         1 UNK         0.0752 
     33 H33        -6.7237   -2.0213    2.1923 H         1 UNK         0.0752 
     34 H34        -8.6099   -3.4320    2.6780 H         1 UNK         0.0513 
     35 H35        -7.9041   -2.9461    4.1819 H         1 UNK         0.0513 
     36 H36        -8.3975   -5.1781    4.1421 H         1 UNK         0.4242 
@<TRIPOS>BOND
     1    1    2 1    
     2    1    6 1    
     3    1   17 1    
     4    1   18 1    
     5    2    3 1    
     6    2   19 1    
     7    2   20 1    
     8    3    4 1    
     9    3   14 1    
    10    4    5 1    
    11    4   21 1    
    12    4   22 1    
    13    5    6 1    
    14    5   23 1    
    15    5   24 1    
    16    6    7 1    
    17    7    8 1    
    18    7   25 1    
    19    7   26 1    
    20    8    9 1    
    21    8   27 1    
    22    8   28 1    
    23    9   10 1    
    24    9   29 1    
    25    9   30 1    
    26   10   11 2    
    27   10   12 2    
    28   10   13 1    
    29   13   31 1    
    30   14   15 1    
    31   14   32 1    
    32   14   33 1    
    33   15   16 1    
    34   15   34 1    
    35   15   35 1    
    36   16   36 1    
@<TRIPOS>SUBSTRUCTURE
     1 UNK         1 GROUP             0       ****    0 ROOT    
@<TRIPOS>MOLECULE
EPPS
36   36    1
SMALL
USER_CHARGES


@<TRIPOS>ATOM
      1 C1         -3.9000   -1.7826    5.5135 C.3       1 UNK         0.0986 
      2 C2         -5.3642   -1.7286    4.9880 C.3       1 UNK         0.1007 
      3 N3         -5.6007   -2.7638    3.9638 N.3       1 UNK        -0.7113 
      4 C4         -4.6298   -2.5790    2.8660 C.3       1 UNK         0.1007 
      5 C5         -3.1687   -2.6355    3.4007 C.3       1 UNK         0.0986 
      6 N6         -2.8926   -1.6201    4.4400 N.3       1 UNK        -0.7051 
      7 C7         -2.8133   -0.2601    3.8830 C.3       1 UNK         0.1131 
      8 C8         -2.1832    0.7680    4.8505 C.3       1 UNK        -0.1197 
      9 C9         -0.6701    0.5952    5.1627 C.3       1 UNK        -0.2881 
     10 S10        -0.2896   -0.7885    6.3739 S.3       1 UNK         1.0110 
     11 O11        -1.3107   -0.8380    7.4256 O.2       1 UNK        -0.4915 
     12 O12         1.1386   -0.7742    6.7090 O.2       1 UNK        -0.4915 
     13 O13        -0.5427   -2.0549    5.3648 O.3       1 UNK        -0.5020 
     14 C14        -7.0044   -2.7046    3.5095 C.3       1 UNK         0.0871 
     15 C15        -7.4490   -3.8186    2.5271 C.3       1 UNK         0.1330 
     16 O16        -7.4638   -5.1032    3.1372 O.3       1 UNK        -0.6627 
     17 H17        -3.7351   -2.7363    6.0197 H         1 UNK         0.0691 
     18 H18        -3.7702   -1.0275    6.2892 H         1 UNK         0.0691 
     19 H19        -5.5937   -0.7318    4.6054 H         1 UNK         0.0706 
     20 H20        -6.0388   -1.8892    5.8317 H         1 UNK         0.0706 
     21 H21        -4.8057   -1.6414    2.3342 H         1 UNK         0.0706 
     22 H22        -4.7425   -3.3739    2.1279 H         1 UNK         0.0706 
     23 H23        -2.9691   -3.6312    3.8032 H         1 UNK         0.0691 
     24 H24        -2.4733   -2.5198    2.5665 H         1 UNK         0.0691 
     25 H25        -2.1854   -0.2891    2.9893 H         1 UNK         0.0626 
     26 H26        -3.7886    0.0944    3.5436 H         1 UNK         0.0626 
     27 H27        -2.3024    1.7438    4.3763 H         1 UNK         0.0883 
     28 H28        -2.7643    0.8524    5.7695 H         1 UNK         0.0883 
     29 H29        -0.2647    1.4901    5.6295 H         1 UNK         0.1467 
     30 H30        -0.0786    0.3908    4.2730 H         1 UNK         0.1467 
     31 H31        -1.4725   -1.9376    5.0180 H         1 UNK         0.3980 
     32 H32        -7.1309   -1.7583    2.9776 H         1 UNK         0.0752 
     33 H33        -7.7323   -2.6232    4.3200 H         1 UNK         0.0752 
     34 H34        -6.8363   -3.8302    1.6249 H         1 UNK         0.0513 
     35 H35        -8.4594   -3.5965    2.1790 H         1 UNK         0.0513 
     36 H36        -7.7456   -5.7501    2.4719 H         1 UNK         0.4242 
@<TRIPOS>BOND
     1    1    2 1    
     2    1    6 1    
     3    1   17 1    
     4    1   18 1    
     5    2    3 1    
     6    2   19 1    
     7    2   20 1    
     8    3    4 1    
     9    3   14 1    
    10    4    5 1    
    11    4   21 1    
    12    4   22 1    
    13    5    6 1    
    14    5   23 1    
    15    5   24 1    
    16    6    7 1    
    17    7    8 1    
    18    7   25 1    
    19    7   26 1    
    20    8    9 1    
    21    8   27 1    
    22    8   28 1    
    23    9   10 1    
    24    9   29 1    
    25    9   30 1    
    26   10   11 2    
    27   10   12 2    
    28   10   13 1    
    29   13   31 1    
    30   14   15 1    
    31   14   32 1    
    32   14   33 1    
    33   15   16 1    
    34   15   34 1    
    35   15   35 1    
    36   16   36 1    
@<TRIPOS>SUBSTRUCTURE
     1 UNK         1 GROUP             0       ****    0 ROOT    
@<TRIPOS>MOLECULE
EPPS
36   36    1
SMALL
USER_CHARGES


@<TRIPOS>ATOM
      1 C1         -4.1569   -2.6896    5.8986 C.3       1 UNK         0.0986 
      2 C2         -5.3635   -3.1907    5.0521 C.3       1 UNK         0.1007 
      3 N3         -4.8962   -4.0491    3.9487 N.3       1 UNK        -0.7113 
      4 C4         -3.9513   -3.2894    3.1078 C.3       1 UNK         0.1007 
      5 C5         -2.7515   -2.7780    3.9586 C.3       1 UNK         0.0986 
      6 N6         -3.1668   -1.9312    5.1017 N.3       1 UNK        -0.7051 
      7 C7         -3.6650   -0.6003    4.7187 C.3       1 UNK         0.1131 
      8 C8         -2.5578    0.3510    4.2094 C.3       1 UNK        -0.1197 
      9 C9         -1.5118    0.8270    5.2563 C.3       1 UNK        -0.2881 
     10 S10        -0.2172   -0.4627    5.6887 S.3       1 UNK         1.0110 
     11 O11         0.7972    0.1294    6.5678 O.2       1 UNK        -0.4915 
     12 O12         0.1695   -1.2157    4.4909 O.2       1 UNK        -0.4915 
     13 O13        -1.1588   -1.4344    6.6133 O.3       1 UNK        -0.5020 
     14 C14        -6.0060   -4.6635    3.1922 C.3       1 UNK         0.0871 
     15 C15        -6.9025   -3.7604    2.3001 C.3       1 UNK         0.1330 
     16 O16        -7.7692   -2.9161    3.0457 O.3       1 UNK        -0.6627 
     17 H17        -3.6662   -3.5437    6.3707 H         1 UNK         0.0691 
     18 H18        -4.5244   -2.0780    6.7253 H         1 UNK         0.0691 
     19 H19        -5.9296   -2.3355    4.6806 H         1 UNK         0.0706 
     20 H20        -6.0440   -3.7519    5.6954 H         1 UNK         0.0706 
     21 H21        -4.4411   -2.4466    2.6174 H         1 UNK         0.0706 
     22 H22        -3.5713   -3.9291    2.3089 H         1 UNK         0.0706 
     23 H23        -2.1869   -3.6345    4.3337 H         1 UNK         0.0691 
     24 H24        -2.0547   -2.2459    3.3105 H         1 UNK         0.0691 
     25 H25        -4.4690   -0.6668    3.9829 H         1 UNK         0.0626 
     26 H26        -4.1125   -0.1324    5.5989 H         1 UNK         0.0626 
     27 H27        -2.0671   -0.0533    3.3234 H         1 UNK         0.0883 
     28 H28        -3.0690    1.2419    3.8403 H         1 UNK         0.0883 
     29 H29        -1.9667    1.1277    6.1975 H         1 UNK         0.1467 
     30 H30        -0.9427    1.6742    4.8799 H         1 UNK         0.1467 
     31 H31        -1.9349   -1.6823    6.0347 H         1 UNK         0.3980 
     32 H32        -6.6107   -5.3529    3.7847 H         1 UNK         0.0752 
     33 H33        -5.5152   -5.3536    2.5028 H         1 UNK         0.0752 
     34 H34        -6.3081   -3.1772    1.5957 H         1 UNK         0.0513 
     35 H35        -7.5232   -4.4033    1.6732 H         1 UNK         0.0513 
     36 H36        -8.3196   -2.4203    2.4200 H         1 UNK         0.4242 
@<TRIPOS>BOND
     1    1    2 1    
     2    1    6 1    
     3    1   17 1    
     4    1   18 1    
     5    2    3 1    
     6    2   19 1    
     7    2   20 1    
     8    3    4 1    
     9    3   14 1    
    10    4    5 1    
    11    4   21 1    
    12    4   22 1    
    13    5    6 1    
    14    5   23 1    
    15    5   24 1    
    16    6    7 1    
    17    7    8 1    
    18    7   25 1    
    19    7   26 1    
    20    8    9 1    
    21    8   27 1    
    22    8   28 1    
    23    9   10 1    
    24    9   29 1    
    25    9   30 1    
    26   10   11 2    
    27   10   12 2    
    28   10   13 1    
    29   13   31 1    
    30   14   15 1    
    31   14   32 1    
    32   14   33 1    
    33   15   16 1    
    34   15   34 1    
    35   15   35 1    
    36   16   36 1    
@<TRIPOS>SUBSTRUCTURE
     1 UNK         1 GROUP             0       ****    0 ROOT    
@<TRIPOS>MOLECULE
EPPS
36   36    1
SMALL
USER_CHARGES


@<TRIPOS>ATOM
      1 C1         -4.6262   -0.4422    4.2562 C.3       1 UNK         0.0986 
      2 C2         -5.5062   -1.7222    4.2227 C.3       1 UNK         0.1007 
      3 N3         -5.4891   -2.3229    2.8760 N.3       1 UNK        -0.7113 
      4 C4         -4.0935   -2.6363    2.5125 C.3       1 UNK         0.1007 
      5 C5         -3.2217   -1.3503    2.5559 C.3       1 UNK         0.0986 
      6 N6         -3.2238   -0.7593    3.9137 N.3       1 UNK        -0.7051 
      7 C7         -2.3996    0.4574    3.9719 C.3       1 UNK         0.1131 
      8 C8         -0.8943    0.1280    4.1052 C.3       1 UNK        -0.1197 
      9 C9         -0.3706   -0.1504    5.5453 C.3       1 UNK        -0.2881 
     10 S10        -1.3675   -1.3897    6.5535 S.3       1 UNK         1.0110 
     11 O11        -2.5785   -0.7501    7.0776 O.2       1 UNK        -0.4915 
     12 O12        -0.4703   -2.1414    7.4380 O.2       1 UNK        -0.4915 
     13 O13        -1.8192   -2.3880    5.3350 O.3       1 UNK        -0.5020 
     14 C14        -6.4101   -3.4703    2.7476 C.3       1 UNK         0.0871 
     15 C15        -6.0895   -4.7847    3.5120 C.3       1 UNK         0.1330 
     16 O16        -6.2928   -4.6825    4.9149 O.3       1 UNK        -0.6627 
     17 H17        -4.6771   -0.0120    5.2587 H         1 UNK         0.0691 
     18 H18        -5.0381    0.3108    3.5793 H         1 UNK         0.0691 
     19 H19        -6.5292   -1.4662    4.5053 H         1 UNK         0.0706 
     20 H20        -5.1429   -2.4243    4.9754 H         1 UNK         0.0706 
     21 H21        -4.0547   -3.0625    1.5081 H         1 UNK         0.0706 
     22 H22        -3.6666   -3.3837    3.1846 H         1 UNK         0.0706 
     23 H23        -2.2090   -1.6108    2.2457 H         1 UNK         0.0691 
     24 H24        -3.5870   -0.6332    1.8162 H         1 UNK         0.0691 
     25 H25        -2.5844    1.1190    3.1216 H         1 UNK         0.0626 
     26 H26        -2.6834    1.0317    4.8574 H         1 UNK         0.0626 
     27 H27        -0.6413   -0.7421    3.4984 H         1 UNK         0.0883 
     28 H28        -0.3199    0.9543    3.6829 H         1 UNK         0.0883 
     29 H29        -0.3260    0.7526    6.1501 H         1 UNK         0.1467 
     30 H30         0.6368   -0.5598    5.5121 H         1 UNK         0.1467 
     31 H31        -2.4058   -1.8242    4.7559 H         1 UNK         0.3980 
     32 H32        -6.3685   -3.7345    1.6888 H         1 UNK         0.0752 
     33 H33        -7.4625   -3.2006    2.8563 H         1 UNK         0.0752 
     34 H34        -6.7474   -5.5709    3.1373 H         1 UNK         0.0513 
     35 H35        -5.0812   -5.1388    3.2934 H         1 UNK         0.0513 
     36 H36        -6.1037   -5.5470    5.3112 H         1 UNK         0.4242 
@<TRIPOS>BOND
     1    1    2 1    
     2    1    6 1    
     3    1   17 1    
     4    1   18 1    
     5    2    3 1    
     6    2   19 1    
     7    2   20 1    
     8    3    4 1    
     9    3   14 1    
    10    4    5 1    
    11    4   21 1    
    12    4   22 1    
    13    5    6 1    
    14    5   23 1    
    15    5   24 1    
    16    6    7 1    
    17    7    8 1    
    18    7   25 1    
    19    7   26 1    
    20    8    9 1    
    21    8   27 1    
    22    8   28 1    
    23    9   10 1    
    24    9   29 1    
    25    9   30 1    
    26   10   11 2    
    27   10   12 2    
    28   10   13 1    
    29   13   31 1    
    30   14   15 1    
    31   14   32 1    
    32   14   33 1    
    33   15   16 1    
    34   15   34 1    
    35   15   35 1    
    36   16   36 1    
@<TRIPOS>SUBSTRUCTURE
     1 UNK         1 GROUP             0       ****    0 ROOT    
@<TRIPOS>MOLECULE
EPPS
36   36    1
SMALL
USER_CHARGES


@<TRIPOS>ATOM
      1 C1         -3.5498   -1.9780    3.0340 C.3       1 UNK         0.0986 
      2 C2         -3.8459   -3.4508    3.4425 C.3       1 UNK         0.1007 
      3 N3         -4.9069   -3.5549    4.4686 N.3       1 UNK        -0.7113 
      4 C4         -4.5226   -2.7097    5.6181 C.3       1 UNK         0.1007 
      5 C5         -4.2290   -1.2374    5.2059 C.3       1 UNK         0.0986 
      6 N6         -3.1382   -1.1812    4.2082 N.3       1 UNK        -0.7051 
      7 C7         -2.8462    0.1994    3.8000 C.3       1 UNK         0.1131 
      8 C8         -2.0941    1.0107    4.8801 C.3       1 UNK        -0.1197 
      9 C9         -0.6382    0.5669    5.1975 C.3       1 UNK        -0.2881 
     10 S10        -0.5199   -0.9740    6.2651 S.3       1 UNK         1.0110 
     11 O11         0.8802   -1.2183    6.6284 O.2       1 UNK        -0.4915 
     12 O12        -1.5737   -0.9679    7.2851 O.2       1 UNK        -0.4915 
     13 O13        -0.9292   -2.0778    5.1251 O.3       1 UNK        -0.5020 
     14 C14        -6.2779   -3.2714    3.9963 C.3       1 UNK         0.0871 
     15 C15        -6.7883   -4.3375    3.0007 C.3       1 UNK         0.1330 
     16 O16        -8.1340   -4.0612    2.6442 O.3       1 UNK        -0.6627 
     17 H17        -4.4168   -1.5369    2.5370 H         1 UNK         0.0691 
     18 H18        -2.7488   -1.9814    2.2914 H         1 UNK         0.0691 
     19 H19        -2.9316   -3.9076    3.8277 H         1 UNK         0.0706 
     20 H20        -4.0940   -4.0331    2.5550 H         1 UNK         0.0706 
     21 H21        -3.6422   -3.1350    6.1047 H         1 UNK         0.0706 
     22 H22        -5.3058   -2.7250    6.3788 H         1 UNK         0.0706 
     23 H23        -5.1360   -0.7604    4.8276 H         1 UNK         0.0691 
     24 H24        -3.9555   -0.6841    6.1050 H         1 UNK         0.0691 
     25 H25        -2.2102    0.1779    2.9113 H         1 UNK         0.0626 
     26 H26        -3.7582    0.7219    3.4993 H         1 UNK         0.0626 
     27 H27        -2.0417    2.0351    4.5072 H         1 UNK         0.0883 
     28 H28        -2.6859    1.0970    5.7921 H         1 UNK         0.0883 
     29 H29        -0.1121    1.3343    5.7610 H         1 UNK         0.1467 
     30 H30        -0.0577    0.3603    4.3010 H         1 UNK         0.1467 
     31 H31        -1.8167   -1.7801    4.7735 H         1 UNK         0.3980 
     32 H32        -6.2902   -2.2855    3.5288 H         1 UNK         0.0752 
     33 H33        -6.9250   -3.2887    4.8762 H         1 UNK         0.0752 
     34 H34        -6.1885   -4.3572    2.0902 H         1 UNK         0.0513 
     35 H35        -6.7284   -5.3342    3.4426 H         1 UNK         0.0513 
     36 H36        -8.4321   -4.7528    2.0321 H         1 UNK         0.4242 
@<TRIPOS>BOND
     1    1    2 1    
     2    1    6 1    
     3    1   17 1    
     4    1   18 1    
     5    2    3 1    
     6    2   19 1    
     7    2   20 1    
     8    3    4 1    
     9    3   14 1    
    10    4    5 1    
    11    4   21 1    
    12    4   22 1    
    13    5    6 1    
    14    5   23 1    
    15    5   24 1    
    16    6    7 1    
    17    7    8 1    
    18    7   25 1    
    19    7   26 1    
    20    8    9 1    
    21    8   27 1    
    22    8   28 1    
    23    9   10 1    
    24    9   29 1    
    25    9   30 1    
    26   10   11 2    
    27   10   12 2    
    28   10   13 1    
    29   13   31 1    
    30   14   15 1    
    31   14   32 1    
    32   14   33 1    
    33   15   16 1    
    34   15   34 1    
    35   15   35 1    
    36   16   36 1    
@<TRIPOS>SUBSTRUCTURE
     1 UNK         1 GROUP             0       ****    0 ROOT    
@<TRIPOS>MOLECULE
EPPS
36   36    1
SMALL
USER_CHARGES


@<TRIPOS>ATOM
      1 C1         -4.5030   -1.5962    4.4707 C.3       1 UNK         0.0986 
      2 C2         -4.9697   -3.0265    4.8651 C.3       1 UNK         0.1007 
      3 N3         -4.7489   -4.0063    3.7815 N.3       1 UNK        -0.7113 
      4 C4         -3.3146   -3.9735    3.4260 C.3       1 UNK         0.1007 
      5 C5         -2.8185   -2.5430    3.0555 C.3       1 UNK         0.0986 
      6 N6         -3.0562   -1.5931    4.1627 N.3       1 UNK        -0.7051 
      7 C7         -2.5697   -0.2587    3.7869 C.3       1 UNK         0.1131 
      8 C8         -2.6506    0.7647    4.9455 C.3       1 UNK        -0.1197 
      9 C9         -2.1550    0.3176    6.3518 C.3       1 UNK        -0.2881 
     10 S10        -0.5457   -0.6477    6.3262 S.3       1 UNK         1.0110 
     11 O11        -0.0310   -0.8000    7.6915 O.2       1 UNK        -0.4915 
     12 O12         0.3205   -0.1689    5.2434 O.2       1 UNK        -0.4915 
     13 O13        -1.1667   -2.0990    5.8732 O.3       1 UNK        -0.5020 
     14 C14        -5.6195   -3.8384    2.5985 C.3       1 UNK         0.0871 
     15 C15        -7.1316   -4.0984    2.8152 C.3       1 UNK         0.1330 
     16 O16        -7.8027   -3.0287    3.4689 O.3       1 UNK        -0.6627 
     17 H17        -4.7167   -0.9269    5.3052 H         1 UNK         0.0691 
     18 H18        -5.0897   -1.2238    3.6278 H         1 UNK         0.0691 
     19 H19        -6.0146   -3.0072    5.1727 H         1 UNK         0.0706 
     20 H20        -4.4257   -3.3485    5.7557 H         1 UNK         0.0706 
     21 H21        -3.1156   -4.6535    2.5952 H         1 UNK         0.0706 
     22 H22        -2.7245   -4.3590    4.2602 H         1 UNK         0.0706 
     23 H23        -1.7496   -2.5946    2.8366 H         1 UNK         0.0691 
     24 H24        -3.2956   -2.2032    2.1334 H         1 UNK         0.0691 
     25 H25        -1.5365   -0.3209    3.4377 H         1 UNK         0.0626 
     26 H26        -3.1493    0.1148    2.9383 H         1 UNK         0.0626 
     27 H27        -2.0604    1.6300    4.6377 H         1 UNK         0.0883 
     28 H28        -3.6629    1.1669    5.0089 H         1 UNK         0.0883 
     29 H29        -2.8773   -0.3123    6.8657 H         1 UNK         0.1467 
     30 H30        -1.9647    1.1774    6.9901 H         1 UNK         0.1467 
     31 H31        -1.8623   -1.9095    5.1836 H         1 UNK         0.3980 
     32 H32        -5.3106   -4.6282    1.9103 H         1 UNK         0.0752 
     33 H33        -5.4553   -2.9307    2.0149 H         1 UNK         0.0752 
     34 H34        -7.6062   -4.2469    1.8435 H         1 UNK         0.0513 
     35 H35        -7.2843   -5.0343    3.3562 H         1 UNK         0.0513 
     36 H36        -8.7373   -3.2706    3.5591 H         1 UNK         0.4242 
@<TRIPOS>BOND
     1    1    2 1    
     2    1    6 1    
     3    1   17 1    
     4    1   18 1    
     5    2    3 1    
     6    2   19 1    
     7    2   20 1    
     8    3    4 1    
     9    3   14 1    
    10    4    5 1    
    11    4   21 1    
    12    4   22 1    
    13    5    6 1    
    14    5   23 1    
    15    5   24 1    
    16    6    7 1    
    17    7    8 1    
    18    7   25 1    
    19    7   26 1    
    20    8    9 1    
    21    8   27 1    
    22    8   28 1    
    23    9   10 1    
    24    9   29 1    
    25    9   30 1    
    26   10   11 2    
    27   10   12 2    
    28   10   13 1    
    29   13   31 1    
    30   14   15 1    
    31   14   32 1    
    32   14   33 1    
    33   15   16 1    
    34   15   34 1    
    35   15   35 1    
    36   16   36 1    
@<TRIPOS>SUBSTRUCTURE
     1 UNK         1 GROUP             0       ****    0 ROOT    
@<TRIPOS>MOLECULE
EPPS
36   36    1
SMALL
USER_CHARGES


@<TRIPOS>ATOM
      1 C1         -4.6314   -0.8226    4.9802 C.3       1 UNK         0.0986 
      2 C2         -5.4374   -1.9498    5.6934 C.3       1 UNK         0.1007 
      3 N3         -5.7096   -3.1044    4.8114 N.3       1 UNK        -0.7113 
      4 C4         -4.4175   -3.5801    4.2760 C.3       1 UNK         0.1007 
      5 C5         -3.6369   -2.4555    3.5373 C.3       1 UNK         0.0986 
      6 N6         -3.3462   -1.3371    4.4586 N.3       1 UNK        -0.7051 
      7 C7         -2.5760   -0.3013    3.7568 C.3       1 UNK         0.1131 
      8 C8         -2.1051    0.8401    4.6903 C.3       1 UNK        -0.1197 
      9 C9         -1.4787    0.4515    6.0614 C.3       1 UNK        -0.2881 
     10 S10        -0.2696   -0.9812    5.9729 S.3       1 UNK         1.0110 
     11 O11         0.4519   -1.1072    7.2440 O.2       1 UNK        -0.4915 
     12 O12         0.4516   -0.9631    4.6957 O.2       1 UNK        -0.4915 
     13 O13        -1.3724   -2.1968    5.9140 O.3       1 UNK        -0.5020 
     14 C14        -6.7354   -2.7960    3.7924 C.3       1 UNK         0.0871 
     15 C15        -7.2702   -3.9953    2.9698 C.3       1 UNK         0.1330 
     16 O16        -6.3783   -4.4245    1.9490 O.3       1 UNK        -0.6627 
     17 H17        -4.4518   -0.0269    5.7047 H         1 UNK         0.0691 
     18 H18        -5.2278   -0.3717    4.1841 H         1 UNK         0.0691 
     19 H19        -6.3732   -1.5394    6.0781 H         1 UNK         0.0706 
     20 H20        -4.8880   -2.2874    6.5748 H         1 UNK         0.0706 
     21 H21        -4.5550   -4.4356    3.6156 H         1 UNK         0.0706 
     22 H22        -3.8075   -3.9613    5.0978 H         1 UNK         0.0706 
     23 H23        -2.7049   -2.8746    3.1519 H         1 UNK         0.0691 
     24 H24        -4.1992   -2.1169    2.6637 H         1 UNK         0.0691 
     25 H25        -1.7046   -0.7467    3.2713 H         1 UNK         0.0626 
     26 H26        -3.1824    0.1213    2.9512 H         1 UNK         0.0626 
     27 H27        -1.3645    1.4142    4.1302 H         1 UNK         0.0883 
     28 H28        -2.9164    1.5561    4.8316 H         1 UNK         0.0883 
     29 H29        -2.2292    0.1688    6.7958 H         1 UNK         0.1467 
     30 H30        -0.9127    1.2802    6.4809 H         1 UNK         0.1467 
     31 H31        -2.1104   -1.8848    5.3196 H         1 UNK         0.3980 
     32 H32        -6.5208   -1.9411    3.1487 H         1 UNK         0.0752 
     33 H33        -7.6029   -2.4578    4.3635 H         1 UNK         0.0752 
     34 H34        -7.5266   -4.8267    3.6293 H         1 UNK         0.0513 
     35 H35        -8.2088   -3.7053    2.4939 H         1 UNK         0.0513 
     36 H36        -6.7907   -5.1679    1.4825 H         1 UNK         0.4242 
@<TRIPOS>BOND
     1    1    2 1    
     2    1    6 1    
     3    1   17 1    
     4    1   18 1    
     5    2    3 1    
     6    2   19 1    
     7    2   20 1    
     8    3    4 1    
     9    3   14 1    
    10    4    5 1    
    11    4   21 1    
    12    4   22 1    
    13    5    6 1    
    14    5   23 1    
    15    5   24 1    
    16    6    7 1    
    17    7    8 1    
    18    7   25 1    
    19    7   26 1    
    20    8    9 1    
    21    8   27 1    
    22    8   28 1    
    23    9   10 1    
    24    9   29 1    
    25    9   30 1    
    26   10   11 2    
    27   10   12 2    
    28   10   13 1    
    29   13   31 1    
    30   14   15 1    
    31   14   32 1    
    32   14   33 1    
    33   15   16 1    
    34   15   34 1    
    35   15   35 1    
    36   16   36 1    
@<TRIPOS>SUBSTRUCTURE
     1 UNK         1 GROUP             0       ****    0 ROOT    
@<TRIPOS>MOLECULE
EPPS
36   36    1
SMALL
USER_CHARGES


@<TRIPOS>ATOM
      1 C1         -4.5252   -1.8662    5.9329 C.3       1 UNK         0.0986 
      2 C2         -4.7244   -3.4099    5.8507 C.3       1 UNK         0.1007 
      3 N3         -5.1444   -3.8607    4.5071 N.3       1 UNK        -0.7113 
      4 C4         -4.1549   -3.3597    3.5311 C.3       1 UNK         0.1007 
      5 C5         -3.9899   -1.8146    3.5988 C.3       1 UNK         0.0986 
      6 N6         -3.5293   -1.4041    4.9432 N.3       1 UNK        -0.7051 
      7 C7         -3.3568    0.0509    5.0525 C.3       1 UNK         0.1131 
      8 C8         -2.2248    0.5968    4.1488 C.3       1 UNK        -0.1197 
      9 C9         -0.8704   -0.1704    4.1296 C.3       1 UNK        -0.2881 
     10 S10        -0.2710   -0.7094    5.8244 S.3       1 UNK         1.0110 
     11 O11        -0.6675    0.2698    6.8421 O.2       1 UNK        -0.4915 
     12 O12         1.1133   -1.1874    5.7377 O.2       1 UNK        -0.4915 
     13 O13        -1.2345   -2.0290    5.9894 O.3       1 UNK        -0.5020 
     14 C14        -6.5489   -3.5041    4.2142 C.3       1 UNK         0.0871 
     15 C15        -7.1676   -4.1361    2.9419 C.3       1 UNK         0.1330 
     16 O16        -6.7505   -3.5077    1.7365 O.3       1 UNK        -0.6627 
     17 H17        -4.1877   -1.6151    6.9409 H         1 UNK         0.0691 
     18 H18        -5.4807   -1.3530    5.8019 H         1 UNK         0.0691 
     19 H19        -5.4551   -3.7222    6.5996 H         1 UNK         0.0706 
     20 H20        -3.7955   -3.9124    6.1288 H         1 UNK         0.0706 
     21 H21        -4.4120   -3.6639    2.5171 H         1 UNK         0.0706 
     22 H22        -3.1895   -3.8323    3.7247 H         1 UNK         0.0706 
     23 H23        -3.2650   -1.5168    2.8399 H         1 UNK         0.0691 
     24 H24        -4.9266   -1.3202    3.3312 H         1 UNK         0.0691 
     25 H25        -4.2944    0.5495    4.7925 H         1 UNK         0.0626 
     26 H26        -3.1498    0.3270    6.0890 H         1 UNK         0.0626 
     27 H27        -2.6001    0.7319    3.1331 H         1 UNK         0.0883 
     28 H28        -2.0302    1.6194    4.4777 H         1 UNK         0.0883 
     29 H29        -0.0746    0.4526    3.7275 H         1 UNK         0.1467 
     30 H30        -0.9124   -1.0719    3.5229 H         1 UNK         0.1467 
     31 H31        -2.1295   -1.7763    5.6280 H         1 UNK         0.3980 
     32 H32        -6.7924   -2.4425    4.2853 H         1 UNK         0.0752 
     33 H33        -7.1244   -3.9402    5.0337 H         1 UNK         0.0752 
     34 H34        -6.9592   -5.2073    2.9076 H         1 UNK         0.0513 
     35 H35        -8.2546   -4.0562    3.0019 H         1 UNK         0.0513 
     36 H36        -7.1860   -3.9580    0.9964 H         1 UNK         0.4242 
@<TRIPOS>BOND
     1    1    2 1    
     2    1    6 1    
     3    1   17 1    
     4    1   18 1    
     5    2    3 1    
     6    2   19 1    
     7    2   20 1    
     8    3    4 1    
     9    3   14 1    
    10    4    5 1    
    11    4   21 1    
    12    4   22 1    
    13    5    6 1    
    14    5   23 1    
    15    5   24 1    
    16    6    7 1    
    17    7    8 1    
    18    7   25 1    
    19    7   26 1    
    20    8    9 1    
    21    8   27 1    
    22    8   28 1    
    23    9   10 1    
    24    9   29 1    
    25    9   30 1    
    26   10   11 2    
    27   10   12 2    
    28   10   13 1    
    29   13   31 1    
    30   14   15 1    
    31   14   32 1    
    32   14   33 1    
    33   15   16 1    
    34   15   34 1    
    35   15   35 1    
    36   16   36 1    
@<TRIPOS>SUBSTRUCTURE
     1 UNK         1 GROUP             0       ****    0 ROOT    
@<TRIPOS>MOLECULE
EPPS
36   36    1
SMALL
USER_CHARGES


@<TRIPOS>ATOM
      1 C1         -4.2867   -0.5554    3.9113 C.3       1 UNK         0.0986 
      2 C2         -5.1732   -1.8414    3.8297 C.3       1 UNK         0.1007 
      3 N3         -4.4728   -3.0281    3.2977 N.3       1 UNK        -0.7113 
      4 C4         -3.7675   -2.6653    2.0520 C.3       1 UNK         0.1007 
      5 C5         -2.8638   -1.3948    2.1757 C.3       1 UNK         0.0986 
      6 N6         -2.8795   -0.7822    3.5189 N.3       1 UNK        -0.7051 
      7 C7         -2.0741    0.4434    3.5514 C.3       1 UNK         0.1131 
      8 C8         -1.7412    0.9058    4.9878 C.3       1 UNK        -0.1197 
      9 C9         -0.8035   -0.0193    5.8138 C.3       1 UNK        -0.2881 
     10 S10        -1.6501   -1.5406    6.5219 S.3       1 UNK         1.0110 
     11 O11        -3.0117   -1.2098    6.9547 O.2       1 UNK        -0.4915 
     12 O12        -0.7257   -2.2429    7.4188 O.2       1 UNK        -0.4915 
     13 O13        -1.7537   -2.4206    5.1432 O.3       1 UNK        -0.5020 
     14 C14        -5.3591   -4.1868    3.0797 C.3       1 UNK         0.0871 
     15 C15        -5.9991   -4.8098    4.3463 C.3       1 UNK         0.1330 
     16 O16        -7.0876   -4.0520    4.8601 O.3       1 UNK        -0.6627 
     17 H17        -4.3357   -0.1714    4.9307 H         1 UNK         0.0691 
     18 H18        -4.7296    0.2220    3.2841 H         1 UNK         0.0691 
     19 H19        -6.0658   -1.6320    3.2359 H         1 UNK         0.0706 
     20 H20        -5.5265   -2.0600    4.8382 H         1 UNK         0.0706 
     21 H21        -4.4876   -2.5100    1.2451 H         1 UNK         0.0706 
     22 H22        -3.1440   -3.5043    1.7365 H         1 UNK         0.0706 
     23 H23        -1.8390   -1.6717    1.9193 H         1 UNK         0.0691 
     24 H24        -3.1707   -0.6637    1.4237 H         1 UNK         0.0691 
     25 H25        -1.1263    0.2572    3.0403 H         1 UNK         0.0626 
     26 H26        -2.5614    1.2477    2.9942 H         1 UNK         0.0626 
     27 H27        -1.2355    1.8677    4.8867 H         1 UNK         0.0883 
     28 H28        -2.6480    1.1467    5.5440 H         1 UNK         0.0883 
     29 H29        -0.4070    0.5046    6.6807 H         1 UNK         0.1467 
     30 H30         0.0413   -0.3850    5.2345 H         1 UNK         0.1467 
     31 H31        -2.2816   -1.8649    4.5006 H         1 UNK         0.3980 
     32 H32        -4.7067   -4.9736    2.6941 H         1 UNK         0.0752 
     33 H33        -6.0946   -4.0637    2.2816 H         1 UNK         0.0752 
     34 H34        -6.3696   -5.8068    4.1010 H         1 UNK         0.0513 
     35 H35        -5.2429   -4.9642    5.1186 H         1 UNK         0.0513 
     36 H36        -7.4315   -4.5117    5.6416 H         1 UNK         0.4242 
@<TRIPOS>BOND
     1    1    2 1    
     2    1    6 1    
     3    1   17 1    
     4    1   18 1    
     5    2    3 1    
     6    2   19 1    
     7    2   20 1    
     8    3    4 1    
     9    3   14 1    
    10    4    5 1    
    11    4   21 1    
    12    4   22 1    
    13    5    6 1    
    14    5   23 1    
    15    5   24 1    
    16    6    7 1    
    17    7    8 1    
    18    7   25 1    
    19    7   26 1    
    20    8    9 1    
    21    8   27 1    
    22    8   28 1    
    23    9   10 1    
    24    9   29 1    
    25    9   30 1    
    26   10   11 2    
    27   10   12 2    
    28   10   13 1    
    29   13   31 1    
    30   14   15 1    
    31   14   32 1    
    32   14   33 1    
    33   15   16 1    
    34   15   34 1    
    35   15   35 1    
    36   16   36 1    
@<TRIPOS>SUBSTRUCTURE
     1 UNK         1 GROUP             0       ****    0 ROOT    
@<TRIPOS>MOLECULE
EPPS
36   36    1
SMALL
USER_CHARGES


@<TRIPOS>ATOM
      1 C1         -4.5116   -0.6074    3.3963 C.3       1 UNK         0.0986 
      2 C2         -5.2572   -1.9813    3.3337 C.3       1 UNK         0.1007 
      3 N3         -4.3883   -3.1523    3.5697 N.3       1 UNK        -0.7113 
      4 C4         -3.1877   -3.0526    2.7157 C.3       1 UNK         0.1007 
      5 C5         -2.4503   -1.6763    2.8045 C.3       1 UNK         0.0986 
      6 N6         -3.0814   -0.7247    3.7435 N.3       1 UNK        -0.7051 
      7 C7         -2.4259    0.5876    3.7477 C.3       1 UNK         0.1131 
      8 C8         -1.0582    0.5734    4.4667 C.3       1 UNK        -0.1197 
      9 C9         -1.0848    0.3204    6.0006 C.3       1 UNK        -0.2881 
     10 S10        -1.3378   -1.4788    6.4815 S.3       1 UNK         1.0110 
     11 O11        -1.1766   -1.6255    7.9323 O.2       1 UNK        -0.4915 
     12 O12        -0.6213   -2.3591    5.5528 O.2       1 UNK        -0.4915 
     13 O13        -2.9401   -1.5909    6.1557 O.3       1 UNK        -0.5020 
     14 C14        -5.0706   -4.4439    3.3648 C.3       1 UNK         0.0871 
     15 C15        -6.2185   -4.7782    4.3510 C.3       1 UNK         0.1330 
     16 O16        -7.4248   -4.0776    4.0729 O.3       1 UNK        -0.6627 
     17 H17        -5.0108    0.0253    4.1333 H         1 UNK         0.0691 
     18 H18        -4.6266   -0.0943    2.4383 H         1 UNK         0.0691 
     19 H19        -5.7657   -2.0766    2.3716 H         1 UNK         0.0706 
     20 H20        -6.0435   -1.9625    4.0891 H         1 UNK         0.0706 
     21 H21        -3.4514   -3.2462    1.6732 H         1 UNK         0.0706 
     22 H22        -2.4844   -3.8397    2.9957 H         1 UNK         0.0706 
     23 H23        -1.4167   -1.8620    3.0979 H         1 UNK         0.0691 
     24 H24        -2.3968   -1.2369    1.8055 H         1 UNK         0.0691 
     25 H25        -2.3205    0.9775    2.7321 H         1 UNK         0.0626 
     26 H26        -3.0649    1.2996    4.2760 H         1 UNK         0.0626 
     27 H27        -0.3588   -0.0991    3.9685 H         1 UNK         0.0883 
     28 H28        -0.6237    1.5626    4.3118 H         1 UNK         0.0883 
     29 H29        -1.8686    0.8814    6.5045 H         1 UNK         0.1467 
     30 H30        -0.1364    0.5970    6.4559 H         1 UNK         0.1467 
     31 H31        -3.0408   -1.3623    5.1872 H         1 UNK         0.3980 
     32 H32        -4.3109   -5.2012    3.5714 H         1 UNK         0.0752 
     33 H33        -5.3573   -4.6579    2.3328 H         1 UNK         0.0752 
     34 H34        -5.9010   -4.5987    5.3801 H         1 UNK         0.0513 
     35 H35        -6.4307   -5.8476    4.2965 H         1 UNK         0.0513 
     36 H36        -8.0866   -4.3468    4.7286 H         1 UNK         0.4242 
@<TRIPOS>BOND
     1    1    2 1    
     2    1    6 1    
     3    1   17 1    
     4    1   18 1    
     5    2    3 1    
     6    2   19 1    
     7    2   20 1    
     8    3    4 1    
     9    3   14 1    
    10    4    5 1    
    11    4   21 1    
    12    4   22 1    
    13    5    6 1    
    14    5   23 1    
    15    5   24 1    
    16    6    7 1    
    17    7    8 1    
    18    7   25 1    
    19    7   26 1    
    20    8    9 1    
    21    8   27 1    
    22    8   28 1    
    23    9   10 1    
    24    9   29 1    
    25    9   30 1    
    26   10   11 2    
    27   10   12 2    
    28   10   13 1    
    29   13   31 1    
    30   14   15 1    
    31   14   32 1    
    32   14   33 1    
    33   15   16 1    
    34   15   34 1    
    35   15   35 1    
    36   16   36 1    
@<TRIPOS>SUBSTRUCTURE
     1 UNK         1 GROUP             0       ****    0 ROOT    
@<TRIPOS>MOLECULE
EPPS
36   36    1
SMALL
USER_CHARGES


@<TRIPOS>ATOM
      1 C1         -4.3058   -0.1017    4.7564 C.3       1 UNK         0.0986 
      2 C2         -5.4132   -1.1630    5.0609 C.3       1 UNK         0.1007 
      3 N3         -5.1903   -2.4728    4.4162 N.3       1 UNK        -0.7113 
      4 C4         -4.9194   -2.2723    2.9780 C.3       1 UNK         0.1007 
      5 C5         -3.8295   -1.1913    2.6762 C.3       1 UNK         0.0986 
      6 N6         -3.2214   -0.6082    3.8886 N.3       1 UNK        -0.7051 
      7 C7         -2.2393    0.4260    3.5453 C.3       1 UNK         0.1131 
      8 C8         -1.3113    0.7889    4.7263 C.3       1 UNK        -0.1197 
      9 C9         -0.3287   -0.3189    5.2006 C.3       1 UNK        -0.2881 
     10 S10        -1.1237   -1.6538    6.2581 S.3       1 UNK         1.0110 
     11 O11        -2.1325   -1.0661    7.1456 O.2       1 UNK        -0.4915 
     12 O12        -0.0842   -2.5439    6.7867 O.2       1 UNK        -0.4915 
     13 O13        -1.9040   -2.4683    5.0691 O.3       1 UNK        -0.5020 
     14 C14        -6.3181   -3.3856    4.6822 C.3       1 UNK         0.0871 
     15 C15        -6.1230   -4.8619    4.2527 C.3       1 UNK         0.1330 
     16 O16        -6.2658   -5.0668    2.8524 O.3       1 UNK        -0.6627 
     17 H17        -3.8952    0.2441    5.7056 H         1 UNK         0.0691 
     18 H18        -4.7706    0.7762    4.3012 H         1 UNK         0.0691 
     19 H19        -6.3832   -0.7579    4.7627 H         1 UNK         0.0706 
     20 H20        -5.4691   -1.3030    6.1425 H         1 UNK         0.0706 
     21 H21        -5.8421   -2.0164    2.4523 H         1 UNK         0.0706 
     22 H22        -4.5773   -3.2129    2.5449 H         1 UNK         0.0706 
     23 H23        -3.0481   -1.6476    2.0646 H         1 UNK         0.0691 
     24 H24        -4.2684   -0.4043    2.0581 H         1 UNK         0.0691 
     25 H25        -1.6064    0.0565    2.7345 H         1 UNK         0.0626 
     26 H26        -2.7311    1.3211    3.1559 H         1 UNK         0.0626 
     27 H27        -0.7060    1.6320    4.3885 H         1 UNK         0.0883 
     28 H28        -1.8803    1.1957    5.5632 H         1 UNK         0.0883 
     29 H29         0.4549    0.1001    5.8280 H         1 UNK         0.1467 
     30 H30         0.1522   -0.8351    4.3728 H         1 UNK         0.1467 
     31 H31        -2.5170   -1.8060    4.6380 H         1 UNK         0.3980 
     32 H32        -7.2989   -3.0100    4.3822 H         1 UNK         0.0752 
     33 H33        -6.3944   -3.4312    5.7710 H         1 UNK         0.0752 
     34 H34        -5.1560   -5.2342    4.5967 H         1 UNK         0.0513 
     35 H35        -6.8672   -5.4785    4.7602 H         1 UNK         0.0513 
     36 H36        -6.1349   -6.0106    2.6719 H         1 UNK         0.4242 
@<TRIPOS>BOND
     1    1    2 1    
     2    1    6 1    
     3    1   17 1    
     4    1   18 1    
     5    2    3 1    
     6    2   19 1    
     7    2   20 1    
     8    3    4 1    
     9    3   14 1    
    10    4    5 1    
    11    4   21 1    
    12    4   22 1    
    13    5    6 1    
    14    5   23 1    
    15    5   24 1    
    16    6    7 1    
    17    7    8 1    
    18    7   25 1    
    19    7   26 1    
    20    8    9 1    
    21    8   27 1    
    22    8   28 1    
    23    9   10 1    
    24    9   29 1    
    25    9   30 1    
    26   10   11 2    
    27   10   12 2    
    28   10   13 1    
    29   13   31 1    
    30   14   15 1    
    31   14   32 1    
    32   14   33 1    
    33   15   16 1    
    34   15   34 1    
    35   15   35 1    
    36   16   36 1    
@<TRIPOS>SUBSTRUCTURE
     1 UNK         1 GROUP             0       ****    0 ROOT    
@<TRIPOS>MOLECULE
EPPS
36   36    1
SMALL
USER_CHARGES


@<TRIPOS>ATOM
      1 C1         -4.5929   -0.7166    4.5398 C.3       1 UNK         0.0986 
      2 C2         -5.3953   -1.9032    5.1503 C.3       1 UNK         0.1007 
      3 N3         -5.4844   -3.0585    4.2349 N.3       1 UNK        -0.7113 
      4 C4         -4.1141   -3.4411    3.8287 C.3       1 UNK         0.1007 
      5 C5         -3.3125   -2.2511    3.2251 C.3       1 UNK         0.0986 
      6 N6         -3.2177   -1.1389    4.1923 N.3       1 UNK        -0.7051 
      7 C7         -2.4428   -0.0294    3.6159 C.3       1 UNK         0.1131 
      8 C8         -1.8937    0.9196    4.7067 C.3       1 UNK        -0.1197 
      9 C9         -0.5562    0.4969    5.3833 C.3       1 UNK        -0.2881 
     10 S10        -0.4820   -1.2764    6.0126 S.3       1 UNK         1.0110 
     11 O11         0.3476   -1.3368    7.2211 O.2       1 UNK        -0.4915 
     12 O12        -0.2497   -2.1955    4.8940 O.2       1 UNK        -0.4915 
     13 O13        -2.0466   -1.4375    6.4726 O.3       1 UNK        -0.5020 
     14 C14        -6.4309   -2.8192    3.1248 C.3       1 UNK         0.0871 
     15 C15        -6.7653   -4.0827    2.2999 C.3       1 UNK         0.1330 
     16 O16        -7.3561   -5.0597    3.1405 O.3       1 UNK        -0.6627 
     17 H17        -4.5759    0.0931    5.2703 H         1 UNK         0.0691 
     18 H18        -5.1148   -0.3171    3.6672 H         1 UNK         0.0691 
     19 H19        -6.3955   -1.5628    5.4262 H         1 UNK         0.0706 
     20 H20        -4.9295   -2.2167    6.0870 H         1 UNK         0.0706 
     21 H21        -4.1305   -4.2678    3.1182 H         1 UNK         0.0706 
     22 H22        -3.5790   -3.8292    4.6982 H         1 UNK         0.0706 
     23 H23        -2.3108   -2.6055    2.9726 H         1 UNK         0.0691 
     24 H24        -3.7605   -1.9238    2.2842 H         1 UNK         0.0691 
     25 H25        -1.5809   -0.4413    3.0846 H         1 UNK         0.0626 
     26 H26        -3.0135    0.5225    2.8645 H         1 UNK         0.0626 
     27 H27        -1.7610    1.9106    4.2694 H         1 UNK         0.0883 
     28 H28        -2.6283    1.0490    5.5022 H         1 UNK         0.0883 
     29 H29        -0.3593    1.1142    6.2572 H         1 UNK         0.1467 
     30 H30         0.2966    0.6087    4.7176 H         1 UNK         0.1467 
     31 H31        -2.5646   -1.3678    5.6219 H         1 UNK         0.3980 
     32 H32        -7.3588   -2.3311    3.4317 H         1 UNK         0.0752 
     33 H33        -5.9926   -2.0942    2.4368 H         1 UNK         0.0752 
     34 H34        -5.8805   -4.4854    1.8056 H         1 UNK         0.0513 
     35 H35        -7.4641   -3.8293    1.5009 H         1 UNK         0.0513 
     36 H36        -6.8053   -5.0784    3.9409 H         1 UNK         0.4242 
@<TRIPOS>BOND
     1    1    2 1    
     2    1    6 1    
     3    1   17 1    
     4    1   18 1    
     5    2    3 1    
     6    2   19 1    
     7    2   20 1    
     8    3    4 1    
     9    3   14 1    
    10    4    5 1    
    11    4   21 1    
    12    4   22 1    
    13    5    6 1    
    14    5   23 1    
    15    5   24 1    
    16    6    7 1    
    17    7    8 1    
    18    7   25 1    
    19    7   26 1    
    20    8    9 1    
    21    8   27 1    
    22    8   28 1    
    23    9   10 1    
    24    9   29 1    
    25    9   30 1    
    26   10   11 2    
    27   10   12 2    
    28   10   13 1    
    29   13   31 1    
    30   14   15 1    
    31   14   32 1    
    32   14   33 1    
    33   15   16 1    
    34   15   34 1    
    35   15   35 1    
    36   16   36 1    
@<TRIPOS>SUBSTRUCTURE
     1 UNK         1 GROUP             0       ****    0 ROOT    
@<TRIPOS>MOLECULE
EPPS
36   36    1
SMALL
USER_CHARGES


@<TRIPOS>ATOM
      1 C1         -4.0771   -2.6918    6.1465 C.3       1 UNK         0.0986 
      2 C2         -5.4154   -3.1273    5.4809 C.3       1 UNK         0.1007 
      3 N3         -5.1520   -3.9282    4.2700 N.3       1 UNK        -0.7113 
      4 C4         -4.3368   -3.1359    3.3315 C.3       1 UNK         0.1007 
      5 C5         -3.0037   -2.6940    4.0034 C.3       1 UNK         0.0986 
      6 N6         -3.2094   -1.9057    5.2413 N.3       1 UNK        -0.7051 
      7 C7         -3.7296   -0.5478    5.0133 C.3       1 UNK         0.1131 
      8 C8         -2.6952    0.4121    4.3818 C.3       1 UNK        -0.1197 
      9 C9         -1.4823    0.8116    5.2685 C.3       1 UNK        -0.2881 
     10 S10        -0.1674   -0.5209    5.4155 S.3       1 UNK         1.0110 
     11 O11         0.9903    0.0046    6.1476 O.2       1 UNK        -0.4915 
     12 O12         0.0016   -1.2116    4.1328 O.2       1 UNK        -0.4915 
     13 O13        -0.9710   -1.5277    6.4288 O.3       1 UNK        -0.5020 
     14 C14        -6.3707   -4.4849    3.6491 C.3       1 UNK         0.0871 
     15 C15        -7.5222   -3.5192    3.2508 C.3       1 UNK         0.1330 
     16 O16        -7.2158   -2.7050    2.1269 O.3       1 UNK        -0.6627 
     17 H17        -3.5375   -3.5780    6.4880 H         1 UNK         0.0691 
     18 H18        -4.2924   -2.1213    7.0525 H         1 UNK         0.0691 
     19 H19        -6.0162   -2.2452    5.2527 H         1 UNK         0.0706 
     20 H20        -5.9929   -3.7155    6.1969 H         1 UNK         0.0706 
     21 H21        -4.8764   -2.2574    2.9757 H         1 UNK         0.0706 
     22 H22        -4.1083   -3.7329    2.4464 H         1 UNK         0.0706 
     23 H23        -2.4086   -3.5797    4.2368 H         1 UNK         0.0691 
     24 H24        -2.4063   -2.1381    3.2803 H         1 UNK         0.0691 
     25 H25        -4.6422   -0.5607    4.4141 H         1 UNK         0.0626 
     26 H26        -4.0185   -0.1220    5.9772 H         1 UNK         0.0626 
     27 H27        -2.3644    0.0501    3.4078 H         1 UNK         0.0883 
     28 H28        -3.2366    1.3304    4.1480 H         1 UNK         0.0883 
     29 H29        -1.7717    1.0660    6.2857 H         1 UNK         0.1467 
     30 H30        -0.9606    1.6695    4.8500 H         1 UNK         0.1467 
     31 H31        -1.8366   -1.7299    5.9723 H         1 UNK         0.3980 
     32 H32        -6.7939   -5.1343    4.4185 H         1 UNK         0.0752 
     33 H33        -6.1674   -5.2075    2.8563 H         1 UNK         0.0752 
     34 H34        -8.4038   -4.1136    3.0040 H         1 UNK         0.0513 
     35 H35        -7.8302   -2.9011    4.0949 H         1 UNK         0.0513 
     36 H36        -7.1692   -3.2746    1.3442 H         1 UNK         0.4242 
@<TRIPOS>BOND
     1    1    2 1    
     2    1    6 1    
     3    1   17 1    
     4    1   18 1    
     5    2    3 1    
     6    2   19 1    
     7    2   20 1    
     8    3    4 1    
     9    3   14 1    
    10    4    5 1    
    11    4   21 1    
    12    4   22 1    
    13    5    6 1    
    14    5   23 1    
    15    5   24 1    
    16    6    7 1    
    17    7    8 1    
    18    7   25 1    
    19    7   26 1    
    20    8    9 1    
    21    8   27 1    
    22    8   28 1    
    23    9   10 1    
    24    9   29 1    
    25    9   30 1    
    26   10   11 2    
    27   10   12 2    
    28   10   13 1    
    29   13   31 1    
    30   14   15 1    
    31   14   32 1    
    32   14   33 1    
    33   15   16 1    
    34   15   34 1    
    35   15   35 1    
    36   16   36 1    
@<TRIPOS>SUBSTRUCTURE
     1 UNK         1 GROUP             0       ****    0 ROOT    
@<TRIPOS>MOLECULE
EPPS
36   36    1
SMALL
USER_CHARGES


@<TRIPOS>ATOM
      1 C1         -4.3655   -0.2882    3.6794 C.3       1 UNK         0.0986 
      2 C2         -5.5058   -1.3205    3.9023 C.3       1 UNK         0.1007 
      3 N3         -5.4273   -2.3982    2.8968 N.3       1 UNK        -0.7113 
      4 C4         -4.1058   -3.0452    2.9965 C.3       1 UNK         0.1007 
      5 C5         -2.9746   -2.0028    2.7780 C.3       1 UNK         0.0986 
      6 N6         -3.0392   -0.9357    3.7986 N.3       1 UNK        -0.7051 
      7 C7         -1.9494    0.0301    3.5933 C.3       1 UNK         0.1131 
      8 C8         -1.6691    0.8618    4.8667 C.3       1 UNK        -0.1197 
      9 C9         -0.7303    0.2119    5.9259 C.3       1 UNK        -0.2881 
     10 S10        -1.1533   -1.5554    6.4200 S.3       1 UNK         1.0110 
     11 O11        -0.8113   -1.7685    7.8306 O.2       1 UNK        -0.4915 
     12 O12        -0.6947   -2.4879    5.3855 O.2       1 UNK        -0.4915 
     13 O13        -2.7854   -1.4546    6.3116 O.3       1 UNK        -0.5020 
     14 C14        -6.5487   -3.3565    2.9647 C.3       1 UNK         0.0871 
     15 C15        -6.8319   -4.0917    4.3048 C.3       1 UNK         0.1330 
     16 O16        -5.8622   -5.0809    4.6234 O.3       1 UNK        -0.6627 
     17 H17        -4.4767    0.5108    4.4136 H         1 UNK         0.0691 
     18 H18        -4.4840    0.1847    2.7011 H         1 UNK         0.0691 
     19 H19        -6.4691   -0.8115    3.8318 H         1 UNK         0.0706 
     20 H20        -5.4378   -1.7187    4.9169 H         1 UNK         0.0706 
     21 H21        -4.0183   -3.8357    2.2486 H         1 UNK         0.0706 
     22 H22        -3.9688   -3.5205    3.9697 H         1 UNK         0.0706 
     23 H23        -2.0127   -2.5167    2.8362 H         1 UNK         0.0691 
     24 H24        -3.0394   -1.5889    1.7685 H         1 UNK         0.0691 
     25 H25        -1.0336   -0.5184    3.3585 H         1 UNK         0.0626 
     26 H26        -2.1321    0.6778    2.7318 H         1 UNK         0.0626 
     27 H27        -1.2412    1.8203    4.5679 H         1 UNK         0.0883 
     28 H28        -2.6034    1.1058    5.3736 H         1 UNK         0.0883 
     29 H29        -0.7545    0.7775    6.8550 H         1 UNK         0.1467 
     30 H30         0.3064    0.1855    5.5978 H         1 UNK         0.1467 
     31 H31        -2.9608   -1.2893    5.3424 H         1 UNK         0.3980 
     32 H32        -6.5862   -4.0462    2.1192 H         1 UNK         0.0752 
     33 H33        -7.4363   -2.7484    2.7771 H         1 UNK         0.0752 
     34 H34        -6.9385   -3.3854    5.1290 H         1 UNK         0.0513 
     35 H35        -7.8027   -4.5852    4.2318 H         1 UNK         0.0513 
     36 H36        -5.9471   -5.8049    3.9847 H         1 UNK         0.4242 
@<TRIPOS>BOND
     1    1    2 1    
     2    1    6 1    
     3    1   17 1    
     4    1   18 1    
     5    2    3 1    
     6    2   19 1    
     7    2   20 1    
     8    3    4 1    
     9    3   14 1    
    10    4    5 1    
    11    4   21 1    
    12    4   22 1    
    13    5    6 1    
    14    5   23 1    
    15    5   24 1    
    16    6    7 1    
    17    7    8 1    
    18    7   25 1    
    19    7   26 1    
    20    8    9 1    
    21    8   27 1    
    22    8   28 1    
    23    9   10 1    
    24    9   29 1    
    25    9   30 1    
    26   10   11 2    
    27   10   12 2    
    28   10   13 1    
    29   13   31 1    
    30   14   15 1    
    31   14   32 1    
    32   14   33 1    
    33   15   16 1    
    34   15   34 1    
    35   15   35 1    
    36   16   36 1    
@<TRIPOS>SUBSTRUCTURE
     1 UNK         1 GROUP             0       ****    0 ROOT    
@<TRIPOS>MOLECULE
EPPS
36   36    1
SMALL
USER_CHARGES


@<TRIPOS>ATOM
      1 C1         -4.7633   -0.4351    4.5868 C.3       1 UNK         0.0986 
      2 C2         -5.6519   -1.7083    4.6366 C.3       1 UNK         0.1007 
      3 N3         -5.8075   -2.2840    3.2864 N.3       1 UNK        -0.7113 
      4 C4         -4.4797   -2.5767    2.7160 C.3       1 UNK         0.1007 
      5 C5         -3.6058   -1.2922    2.6871 C.3       1 UNK         0.0986 
      6 N6         -3.4218   -0.7502    4.0528 N.3       1 UNK        -0.7051 
      7 C7         -2.5847    0.4590    4.0409 C.3       1 UNK         0.1131 
      8 C8         -1.0785    0.1160    3.9644 C.3       1 UNK        -0.1197 
      9 C9         -0.3731   -0.2119    5.3137 C.3       1 UNK        -0.2881 
     10 S10        -1.2410   -1.4780    6.4046 S.3       1 UNK         1.0110 
     11 O11        -2.3647   -0.8484    7.1053 O.2       1 UNK        -0.4915 
     12 O12        -0.2432   -2.2655    7.1371 O.2       1 UNK        -0.4915 
     13 O13        -1.8621   -2.4314    5.2251 O.3       1 UNK        -0.5020 
     14 C14        -6.7406   -3.4260    3.2149 C.3       1 UNK         0.0871 
     15 C15        -6.5779   -4.5954    4.2235 C.3       1 UNK         0.1330 
     16 O16        -5.4100   -5.3698    3.9978 O.3       1 UNK        -0.6627 
     17 H17        -4.6771   -0.0321    5.5981 H         1 UNK         0.0691 
     18 H18        -5.2547    0.3383    3.9909 H         1 UNK         0.0691 
     19 H19        -6.6298   -1.4472    5.0462 H         1 UNK         0.0706 
     20 H20        -5.2074   -2.4283    5.3268 H         1 UNK         0.0706 
     21 H21        -4.5882   -2.9594    1.6991 H         1 UNK         0.0706 
     22 H22        -3.9597   -3.3494    3.2831 H         1 UNK         0.0706 
     23 H23        -2.6456   -1.5398    2.2327 H         1 UNK         0.0691 
     24 H24        -4.0657   -0.5499    2.0296 H         1 UNK         0.0691 
     25 H25        -2.8726    1.1499    3.2442 H         1 UNK         0.0626 
     26 H26        -2.7434    1.0055    4.9741 H         1 UNK         0.0626 
     27 H27        -0.9165   -0.7357    3.3029 H         1 UNK         0.0883 
     28 H28        -0.5560    0.9518    3.4959 H         1 UNK         0.0883 
     29 H29        -0.2410    0.6707    5.9354 H         1 UNK         0.1467 
     30 H30         0.6173   -0.6254    5.1355 H         1 UNK         0.1467 
     31 H31        -2.5080   -1.8409    4.7438 H         1 UNK         0.3980 
     32 H32        -6.9075   -3.7973    2.2017 H         1 UNK         0.0752 
     33 H33        -7.7160   -2.9897    3.4400 H         1 UNK         0.0752 
     34 H34        -7.4398   -5.2572    4.1235 H         1 UNK         0.0513 
     35 H35        -6.6148   -4.2415    5.2548 H         1 UNK         0.0513 
     36 H36        -4.6486   -4.8375    4.2684 H         1 UNK         0.4242 
@<TRIPOS>BOND
     1    1    2 1    
     2    1    6 1    
     3    1   17 1    
     4    1   18 1    
     5    2    3 1    
     6    2   19 1    
     7    2   20 1    
     8    3    4 1    
     9    3   14 1    
    10    4    5 1    
    11    4   21 1    
    12    4   22 1    
    13    5    6 1    
    14    5   23 1    
    15    5   24 1    
    16    6    7 1    
    17    7    8 1    
    18    7   25 1    
    19    7   26 1    
    20    8    9 1    
    21    8   27 1    
    22    8   28 1    
    23    9   10 1    
    24    9   29 1    
    25    9   30 1    
    26   10   11 2    
    27   10   12 2    
    28   10   13 1    
    29   13   31 1    
    30   14   15 1    
    31   14   32 1    
    32   14   33 1    
    33   15   16 1    
    34   15   34 1    
    35   15   35 1    
    36   16   36 1    
@<TRIPOS>SUBSTRUCTURE
     1 UNK         1 GROUP             0       ****    0 ROOT    
@<TRIPOS>MOLECULE
EPPS
36   36    1
SMALL
USER_CHARGES


@<TRIPOS>ATOM
      1 C1         -4.2380   -1.4147    4.9053 C.3       1 UNK         0.0986 
      2 C2         -4.4587   -2.9351    5.1538 C.3       1 UNK         0.1007 
      3 N3         -4.6524   -3.6941    3.8984 N.3       1 UNK        -0.7113 
      4 C4         -3.4999   -3.4249    3.0136 C.3       1 UNK         0.1007 
      5 C5         -3.2753   -1.9034    2.7693 C.3       1 UNK         0.0986 
      6 N6         -3.0542   -1.1933    4.0460 N.3       1 UNK        -0.7051 
      7 C7         -2.8269    0.2357    3.7924 C.3       1 UNK         0.1131 
      8 C8         -2.2601    0.9919    5.0162 C.3       1 UNK        -0.1197 
      9 C9         -0.8161    0.6212    5.4572 C.3       1 UNK        -0.2881 
     10 S10        -0.6906   -1.0036    6.3913 S.3       1 UNK         1.0110 
     11 O11        -1.8440   -1.1684    7.2820 O.2       1 UNK        -0.4915 
     12 O12         0.6779   -1.1848    6.8877 O.2       1 UNK        -0.4915 
     13 O13        -0.8879   -2.0179    5.1195 O.3       1 UNK        -0.5020 
     14 C14        -5.9460   -3.4816    3.2175 C.3       1 UNK         0.0871 
     15 C15        -7.1387   -4.0182    4.0426 C.3       1 UNK         0.1330 
     16 O16        -8.3459   -3.8824    3.3081 O.3       1 UNK        -0.6627 
     17 H17        -4.1040   -0.9318    5.8738 H         1 UNK         0.0691 
     18 H18        -5.1332   -0.9644    4.4709 H         1 UNK         0.0691 
     19 H19        -5.2964   -3.0766    5.8366 H         1 UNK         0.0706 
     20 H20        -3.5955   -3.3404    5.6864 H         1 UNK         0.0706 
     21 H21        -3.6308   -3.9315    2.0551 H         1 UNK         0.0706 
     22 H22        -2.5983   -3.8623    3.4480 H         1 UNK         0.0706 
     23 H23        -2.4027   -1.7832    2.1235 H         1 UNK         0.0691 
     24 H24        -4.1173   -1.4777    2.2183 H         1 UNK         0.0691 
     25 H25        -2.0989    0.3391    2.9837 H         1 UNK         0.0626 
     26 H26        -3.7384    0.7217    3.4346 H         1 UNK         0.0626 
     27 H27        -2.2488    2.0480    4.7407 H         1 UNK         0.0883 
     28 H28        -2.9505    0.9514    5.8594 H         1 UNK         0.0883 
     29 H29        -0.4162    1.3653    6.1425 H         1 UNK         0.1467 
     30 H30        -0.1283    0.5429    4.6182 H         1 UNK         0.1467 
     31 H31        -1.7546   -1.7507    4.6985 H         1 UNK         0.3980 
     32 H32        -5.8998   -4.0325    2.2754 H         1 UNK         0.0752 
     33 H33        -6.0700   -2.4132    3.0328 H         1 UNK         0.0752 
     34 H34        -6.9869   -5.0672    4.3050 H         1 UNK         0.0513 
     35 H35        -7.2509   -3.4678    4.9772 H         1 UNK         0.0513 
     36 H36        -8.3510   -4.5517    2.6058 H         1 UNK         0.4242 
@<TRIPOS>BOND
     1    1    2 1    
     2    1    6 1    
     3    1   17 1    
     4    1   18 1    
     5    2    3 1    
     6    2   19 1    
     7    2   20 1    
     8    3    4 1    
     9    3   14 1    
    10    4    5 1    
    11    4   21 1    
    12    4   22 1    
    13    5    6 1    
    14    5   23 1    
    15    5   24 1    
    16    6    7 1    
    17    7    8 1    
    18    7   25 1    
    19    7   26 1    
    20    8    9 1    
    21    8   27 1    
    22    8   28 1    
    23    9   10 1    
    24    9   29 1    
    25    9   30 1    
    26   10   11 2    
    27   10   12 2    
    28   10   13 1    
    29   13   31 1    
    30   14   15 1    
    31   14   32 1    
    32   14   33 1    
    33   15   16 1    
    34   15   34 1    
    35   15   35 1    
    36   16   36 1    
@<TRIPOS>SUBSTRUCTURE
     1 UNK         1 GROUP             0       ****    0 ROOT    
@<TRIPOS>MOLECULE
EPPS
36   36    1
SMALL
USER_CHARGES


@<TRIPOS>ATOM
      1 C1         -4.4639   -0.7690    4.7166 C.3       1 UNK         0.0986 
      2 C2         -5.0824   -2.1944    4.7162 C.3       1 UNK         0.1007 
      3 N3         -5.1415   -2.7436    3.3442 N.3       1 UNK        -0.7113 
      4 C4         -3.7707   -2.7503    2.7948 C.3       1 UNK         0.1007 
      5 C5         -3.1623   -1.3209    2.8024 C.3       1 UNK         0.0986 
      6 N6         -3.0870   -0.7938    4.1830 N.3       1 UNK        -0.7051 
      7 C7         -2.5092    0.5586    4.2099 C.3       1 UNK         0.1131 
      8 C8         -0.9652    0.5280    4.1263 C.3       1 UNK        -0.1197 
      9 C9         -0.2033    0.3097    5.4670 C.3       1 UNK        -0.2881 
     10 S10        -0.7954   -1.1362    6.5180 S.3       1 UNK         1.0110 
     11 O11        -2.0221   -0.7673    7.2317 O.2       1 UNK        -0.4915 
     12 O12         0.3425   -1.7261    7.2319 O.2       1 UNK        -0.4915 
     13 O13        -1.2123   -2.1613    5.3092 O.3       1 UNK        -0.5020 
     14 C14        -5.7073   -4.1053    3.2962 C.3       1 UNK         0.0871 
     15 C15        -7.2167   -4.1279    3.6299 C.3       1 UNK         0.1330 
     16 O16        -7.7243   -5.4460    3.4901 O.3       1 UNK        -0.6627 
     17 H17        -4.4596   -0.3923    5.7417 H         1 UNK         0.0691 
     18 H18        -5.0984   -0.0879    4.1436 H         1 UNK         0.0691 
     19 H19        -6.0826   -2.1235    5.1447 H         1 UNK         0.0706 
     20 H20        -4.5099   -2.8484    5.3784 H         1 UNK         0.0706 
     21 H21        -3.7835   -3.1170    1.7663 H         1 UNK         0.0706 
     22 H22        -3.1249   -3.4319    3.3543 H         1 UNK         0.0706 
     23 H23        -2.1721   -1.3658    2.3470 H         1 UNK         0.0691 
     24 H24        -3.7576   -0.6641    2.1628 H         1 UNK         0.0691 
     25 H25        -2.9329    1.2014    3.4338 H         1 UNK         0.0626 
     26 H26        -2.7712    1.0334    5.1589 H         1 UNK         0.0626 
     27 H27        -0.6379   -0.2545    3.4408 H         1 UNK         0.0883 
     28 H28        -0.6231    1.4649    3.6833 H         1 UNK         0.0883 
     29 H29        -0.2490    1.1823    6.1147 H         1 UNK         0.1467 
     30 H30         0.8493    0.1090    5.2791 H         1 UNK         0.1467 
     31 H31        -1.9684   -1.7036    4.8447 H         1 UNK         0.3980 
     32 H32        -5.1533   -4.7285    4.0026 H         1 UNK         0.0752 
     33 H33        -5.5789   -4.4696    2.2742 H         1 UNK         0.0752 
     34 H34        -7.4072   -3.7923    4.6500 H         1 UNK         0.0513 
     35 H35        -7.7655   -3.4558    2.9670 H         1 UNK         0.0513 
     36 H36        -8.6730   -5.4269    3.6931 H         1 UNK         0.4242 
@<TRIPOS>BOND
     1    1    2 1    
     2    1    6 1    
     3    1   17 1    
     4    1   18 1    
     5    2    3 1    
     6    2   19 1    
     7    2   20 1    
     8    3    4 1    
     9    3   14 1    
    10    4    5 1    
    11    4   21 1    
    12    4   22 1    
    13    5    6 1    
    14    5   23 1    
    15    5   24 1    
    16    6    7 1    
    17    7    8 1    
    18    7   25 1    
    19    7   26 1    
    20    8    9 1    
    21    8   27 1    
    22    8   28 1    
    23    9   10 1    
    24    9   29 1    
    25    9   30 1    
    26   10   11 2    
    27   10   12 2    
    28   10   13 1    
    29   13   31 1    
    30   14   15 1    
    31   14   32 1    
    32   14   33 1    
    33   15   16 1    
    34   15   34 1    
    35   15   35 1    
    36   16   36 1    
@<TRIPOS>SUBSTRUCTURE
     1 UNK         1 GROUP             0       ****    0 ROOT    
@<TRIPOS>MOLECULE
EPPS
36   36    1
SMALL
USER_CHARGES


@<TRIPOS>ATOM
      1 C1         -3.7182   -1.9642    5.6083 C.3       1 UNK         0.0986 
      2 C2         -5.2041   -2.0481    5.1525 C.3       1 UNK         0.1007 
      3 N3         -5.3833   -3.0750    4.1069 N.3       1 UNK        -0.7113 
      4 C4         -4.4947   -2.7464    2.9720 C.3       1 UNK         0.1007 
      5 C5         -3.0099   -2.6669    3.4334 C.3       1 UNK         0.0986 
      6 N6         -2.7880   -1.6629    4.4963 N.3       1 UNK        -0.7051 
      7 C7         -2.8761   -0.2843    3.9883 C.3       1 UNK         0.1131 
      8 C8         -2.3054    0.7706    4.9637 C.3       1 UNK        -0.1197 
      9 C9         -0.7686    0.7454    5.1968 C.3       1 UNK        -0.2881 
     10 S10        -0.1869   -0.6327    6.3322 S.3       1 UNK         1.0110 
     11 O11        -1.1423   -0.8253    7.4282 O.2       1 UNK        -0.4915 
     12 O12         1.2477   -0.4813    6.5997 O.2       1 UNK        -0.4915 
     13 O13        -0.3602   -1.8824    5.2862 O.3       1 UNK        -0.5020 
     14 C14        -6.8047   -3.1513    3.7185 C.3       1 UNK         0.0871 
     15 C15        -7.1044   -4.3685    2.8136 C.3       1 UNK         0.1330 
     16 O16        -8.4951   -4.4368    2.5380 O.3       1 UNK        -0.6627 
     17 H17        -3.4307   -2.9109    6.0711 H         1 UNK         0.0691 
     18 H18        -3.6292   -1.2247    6.4045 H         1 UNK         0.0691 
     19 H19        -5.5535   -1.0706    4.8128 H         1 UNK         0.0706 
     20 H20        -5.8150   -2.2989    6.0222 H         1 UNK         0.0706 
     21 H21        -4.7948   -1.8127    2.4914 H         1 UNK         0.0706 
     22 H22        -4.5592   -3.5168    2.2030 H         1 UNK         0.0706 
     23 H23        -2.6882   -3.6487    3.7879 H         1 UNK         0.0691 
     24 H24        -2.3742   -2.4513    2.5721 H         1 UNK         0.0691 
     25 H25        -2.2946   -0.2185    3.0655 H         1 UNK         0.0626 
     26 H26        -3.8983   -0.0216    3.7090 H         1 UNK         0.0626 
     27 H27        -2.5477    1.7442    4.5339 H         1 UNK         0.0883 
     28 H28        -2.8441    0.7633    5.9119 H         1 UNK         0.0883 
     29 H29        -0.4335    1.6608    5.6795 H         1 UNK         0.1467 
     30 H30        -0.2057    0.6351    4.2727 H         1 UNK         0.1467 
     31 H31        -1.3141   -1.8513    4.9901 H         1 UNK         0.3980 
     32 H32        -7.0665   -2.2231    3.2044 H         1 UNK         0.0752 
     33 H33        -7.3831   -3.2610    4.6389 H         1 UNK         0.0752 
     34 H34        -6.7847   -5.2935    3.2978 H         1 UNK         0.0513 
     35 H35        -6.5690   -4.3055    1.8655 H         1 UNK         0.0513 
     36 H36        -8.6541   -5.2150    1.9804 H         1 UNK         0.4242 
@<TRIPOS>BOND
     1    1    2 1    
     2    1    6 1    
     3    1   17 1    
     4    1   18 1    
     5    2    3 1    
     6    2   19 1    
     7    2   20 1    
     8    3    4 1    
     9    3   14 1    
    10    4    5 1    
    11    4   21 1    
    12    4   22 1    
    13    5    6 1    
    14    5   23 1    
    15    5   24 1    
    16    6    7 1    
    17    7    8 1    
    18    7   25 1    
    19    7   26 1    
    20    8    9 1    
    21    8   27 1    
    22    8   28 1    
    23    9   10 1    
    24    9   29 1    
    25    9   30 1    
    26   10   11 2    
    27   10   12 2    
    28   10   13 1    
    29   13   31 1    
    30   14   15 1    
    31   14   32 1    
    32   14   33 1    
    33   15   16 1    
    34   15   34 1    
    35   15   35 1    
    36   16   36 1    
@<TRIPOS>SUBSTRUCTURE
     1 UNK         1 GROUP             0       ****    0 ROOT    
@<TRIPOS>MOLECULE
EPPS
36   36    1
SMALL
USER_CHARGES


@<TRIPOS>ATOM
      1 C1         -4.2367   -0.2172    3.4511 C.3       1 UNK         0.0986 
      2 C2         -5.5361   -1.0849    3.3716 C.3       1 UNK         0.1007 
      3 N3         -5.2930   -2.5384    3.4550 N.3       1 UNK        -0.7113 
      4 C4         -4.2565   -2.9189    2.4714 C.3       1 UNK         0.1007 
      5 C5         -2.9648   -2.0384    2.5386 C.3       1 UNK         0.0986 
      6 N6         -3.0000   -1.0130    3.6007 N.3       1 UNK        -0.7051 
      7 C7         -1.7767   -0.2029    3.5950 C.3       1 UNK         0.1131 
      8 C8         -1.6860    0.7562    4.8061 C.3       1 UNK        -0.1197 
      9 C9         -2.0494    0.2000    6.2150 C.3       1 UNK        -0.2881 
     10 S10        -1.3996   -1.5278    6.5599 S.3       1 UNK         1.0110 
     11 O11        -0.1277   -1.7468    5.8627 O.2       1 UNK        -0.4915 
     12 O12        -1.5363   -1.8356    7.9877 O.2       1 UNK        -0.4915 
     13 O13        -2.5654   -2.3699    5.7663 O.3       1 UNK        -0.5020 
     14 C14        -6.5527   -3.2932    3.3175 C.3       1 UNK         0.0871 
     15 C15        -6.4167   -4.7986    3.6396 C.3       1 UNK         0.1330 
     16 O16        -5.9682   -4.9569    4.9751 O.3       1 UNK        -0.6627 
     17 H17        -4.3371    0.4711    4.2916 H         1 UNK         0.0691 
     18 H18        -4.1715    0.4120    2.5603 H         1 UNK         0.0691 
     19 H19        -6.0677   -0.8452    2.4477 H         1 UNK         0.0706 
     20 H20        -6.2025   -0.7878    4.1840 H         1 UNK         0.0706 
     21 H21        -4.6651   -2.8782    1.4591 H         1 UNK         0.0706 
     22 H22        -3.9628   -3.9569    2.6336 H         1 UNK         0.0706 
     23 H23        -2.1045   -2.6928    2.6955 H         1 UNK         0.0691 
     24 H24        -2.8045   -1.5668    1.5659 H         1 UNK         0.0691 
     25 H25        -1.7324    0.3784    2.6704 H         1 UNK         0.0626 
     26 H26        -0.8975   -0.8508    3.5833 H         1 UNK         0.0626 
     27 H27        -0.6561    1.1166    4.8397 H         1 UNK         0.0883 
     28 H28        -2.2583    1.6617    4.5976 H         1 UNK         0.0883 
     29 H29        -3.1235    0.1549    6.3785 H         1 UNK         0.1467 
     30 H30        -1.6308    0.8259    6.9999 H         1 UNK         0.1467 
     31 H31        -2.7406   -1.8860    4.9097 H         1 UNK         0.3980 
     32 H32        -6.8918   -3.2094    2.2821 H         1 UNK         0.0752 
     33 H33        -7.3870   -2.8733    3.8843 H         1 UNK         0.0752 
     34 H34        -7.3821   -5.2937    3.5231 H         1 UNK         0.0513 
     35 H35        -5.7380   -5.2956    2.9451 H         1 UNK         0.0513 
     36 H36        -5.2559   -4.3037    5.0824 H         1 UNK         0.4242 
@<TRIPOS>BOND
     1    1    2 1    
     2    1    6 1    
     3    1   17 1    
     4    1   18 1    
     5    2    3 1    
     6    2   19 1    
     7    2   20 1    
     8    3    4 1    
     9    3   14 1    
    10    4    5 1    
    11    4   21 1    
    12    4   22 1    
    13    5    6 1    
    14    5   23 1    
    15    5   24 1    
    16    6    7 1    
    17    7    8 1    
    18    7   25 1    
    19    7   26 1    
    20    8    9 1    
    21    8   27 1    
    22    8   28 1    
    23    9   10 1    
    24    9   29 1    
    25    9   30 1    
    26   10   11 2    
    27   10   12 2    
    28   10   13 1    
    29   13   31 1    
    30   14   15 1    
    31   14   32 1    
    32   14   33 1    
    33   15   16 1    
    34   15   34 1    
    35   15   35 1    
    36   16   36 1    
@<TRIPOS>SUBSTRUCTURE
     1 UNK         1 GROUP             0       ****    0 ROOT    
@<TRIPOS>MOLECULE
EPPS
36   36    1
SMALL
USER_CHARGES


@<TRIPOS>ATOM
      1 C1         -4.8537   -0.4461    4.1661 C.3       1 UNK         0.0986 
      2 C2         -5.7631   -1.6677    3.8069 C.3       1 UNK         0.1007 
      3 N3         -5.0248   -2.8212    3.2491 N.3       1 UNK        -0.7113 
      4 C4         -4.1549   -2.3596    2.1496 C.3       1 UNK         0.1007 
      5 C5         -3.2443   -1.1444    2.5260 C.3       1 UNK         0.0986 
      6 N6         -3.4170   -0.6828    3.9196 N.3       1 UNK        -0.7051 
      7 C7         -2.6210    0.5055    4.2472 C.3       1 UNK         0.1131 
      8 C8         -1.0971    0.2432    4.1849 C.3       1 UNK        -0.1197 
      9 C9         -0.5477   -1.0635    4.8308 C.3       1 UNK        -0.2881 
     10 S10        -1.3302   -1.5036    6.4802 S.3       1 UNK         1.0110 
     11 O11        -1.7062   -0.2883    7.2106 O.2       1 UNK        -0.4915 
     12 O12        -0.5530   -2.5626    7.1335 O.2       1 UNK        -0.4915 
     13 O13        -2.7037   -2.1938    5.9013 O.3       1 UNK        -0.5020 
     14 C14        -5.8929   -3.9281    2.8060 C.3       1 UNK         0.0871 
     15 C15        -6.6530   -4.6252    3.9571 C.3       1 UNK         0.1330 
     16 O16        -5.7214   -5.1589    4.8829 O.3       1 UNK        -0.6627 
     17 H17        -5.0042   -0.1971    5.2188 H         1 UNK         0.0691 
     18 H18        -5.1926    0.4275    3.6039 H         1 UNK         0.0691 
     19 H19        -6.5383   -1.3437    3.1087 H         1 UNK         0.0706 
     20 H20        -6.2865   -1.9733    4.7139 H         1 UNK         0.0706 
     21 H21        -4.7588   -2.0949    1.2784 H         1 UNK         0.0706 
     22 H22        -3.5167   -3.1858    1.8293 H         1 UNK         0.0706 
     23 H23        -2.2054   -1.4318    2.3579 H         1 UNK         0.0691 
     24 H24        -3.4392   -0.3229    1.8327 H         1 UNK         0.0691 
     25 H25        -2.8765    1.3135    3.5567 H         1 UNK         0.0626 
     26 H26        -2.8825    0.8694    5.2432 H         1 UNK         0.0626 
     27 H27        -0.7547    0.3279    3.1523 H         1 UNK         0.0883 
     28 H28        -0.6162    1.0916    4.6755 H         1 UNK         0.0883 
     29 H29         0.5179   -0.9795    5.0321 H         1 UNK         0.1467 
     30 H30        -0.6864   -1.9321    4.1915 H         1 UNK         0.1467 
     31 H31        -3.0219   -1.6194    5.1481 H         1 UNK         0.3980 
     32 H32        -5.3813   -4.6794    2.1997 H         1 UNK         0.0752 
     33 H33        -6.6399   -3.5242    2.1184 H         1 UNK         0.0752 
     34 H34        -7.3394   -3.9392    4.4552 H         1 UNK         0.0513 
     35 H35        -7.2699   -5.4334    3.5610 H         1 UNK         0.0513 
     36 H36        -5.0567   -4.4599    5.0053 H         1 UNK         0.4242 
@<TRIPOS>BOND
     1    1    2 1    
     2    1    6 1    
     3    1   17 1    
     4    1   18 1    
     5    2    3 1    
     6    2   19 1    
     7    2   20 1    
     8    3    4 1    
     9    3   14 1    
    10    4    5 1    
    11    4   21 1    
    12    4   22 1    
    13    5    6 1    
    14    5   23 1    
    15    5   24 1    
    16    6    7 1    
    17    7    8 1    
    18    7   25 1    
    19    7   26 1    
    20    8    9 1    
    21    8   27 1    
    22    8   28 1    
    23    9   10 1    
    24    9   29 1    
    25    9   30 1    
    26   10   11 2    
    27   10   12 2    
    28   10   13 1    
    29   13   31 1    
    30   14   15 1    
    31   14   32 1    
    32   14   33 1    
    33   15   16 1    
    34   15   34 1    
    35   15   35 1    
    36   16   36 1    
@<TRIPOS>SUBSTRUCTURE
     1 UNK         1 GROUP             0       ****    0 ROOT    
@<TRIPOS>MOLECULE
EPPS
36   36    1
SMALL
USER_CHARGES


@<TRIPOS>ATOM
      1 C1         -3.6178   -2.7080    5.3810 C.3       1 UNK         0.0986 
      2 C2         -5.0263   -3.1884    4.9237 C.3       1 UNK         0.1007 
      3 N3         -4.9184   -4.0507    3.7331 N.3       1 UNK        -0.7113 
      4 C4         -4.2225   -3.3311    2.6494 C.3       1 UNK         0.1007 
      5 C5         -2.8181   -2.8577    3.1251 C.3       1 UNK         0.0986 
      6 N6         -2.8737   -1.9880    4.3210 N.3       1 UNK        -0.7051 
      7 C7         -3.3983   -0.6480    4.0133 C.3       1 UNK         0.1131 
      8 C8         -3.1336    0.3895    5.1284 C.3       1 UNK        -0.1197 
      9 C9         -1.6532    0.8061    5.3556 C.3       1 UNK        -0.2881 
     10 S10        -0.6314   -0.4665    6.2845 S.3       1 UNK         1.0110 
     11 O11        -1.4345   -1.0888    7.3423 O.2       1 UNK        -0.4915 
     12 O12         0.6995    0.0805    6.5706 O.2       1 UNK        -0.4915 
     13 O13        -0.4620   -1.5563    5.0723 O.3       1 UNK        -0.5020 
     14 C14        -6.2002   -4.6647    3.3333 C.3       1 UNK         0.0871 
     15 C15        -7.2523   -3.7965    2.5919 C.3       1 UNK         0.1330 
     16 O16        -7.8449   -2.8078    3.4200 O.3       1 UNK        -0.6627 
     17 H17        -3.0330   -3.5716    5.7056 H         1 UNK         0.0691 
     18 H18        -3.7230   -2.0905    6.2734 H         1 UNK         0.0691 
     19 H19        -5.6665   -2.3255    4.7420 H         1 UNK         0.0706 
     20 H20        -5.4918   -3.7456    5.7393 H         1 UNK         0.0706 
     21 H21        -4.8019   -2.4736    2.3032 H         1 UNK         0.0706 
     22 H22        -4.1018   -3.9888    1.7863 H         1 UNK         0.0706 
     23 H23        -2.1962   -3.7298    3.3391 H         1 UNK         0.0691 
     24 H24        -2.3136   -2.3411    2.3058 H         1 UNK         0.0691 
     25 H25        -2.9048   -0.2829    3.1092 H         1 UNK         0.0626 
     26 H26        -4.4630   -0.6769    3.7737 H         1 UNK         0.0626 
     27 H27        -3.6787    1.2904    4.8409 H         1 UNK         0.0883 
     28 H28        -3.6027    0.0894    6.0660 H         1 UNK         0.0883 
     29 H29        -1.5915    1.7064    5.9629 H         1 UNK         0.1467 
     30 H30        -1.1241    0.9995    4.4251 H         1 UNK         0.1467 
     31 H31        -1.3921   -1.7798    4.7834 H         1 UNK         0.3980 
     32 H32        -6.6649   -5.2671    4.1165 H         1 UNK         0.0752 
     33 H33        -5.9147   -5.4387    2.6178 H         1 UNK         0.0752 
     34 H34        -8.0488   -4.4523    2.2362 H         1 UNK         0.0513 
     35 H35        -6.8354   -3.3474    1.6891 H         1 UNK         0.0513 
     36 H36        -7.1827   -2.1202    3.5764 H         1 UNK         0.4242 
@<TRIPOS>BOND
     1    1    2 1    
     2    1    6 1    
     3    1   17 1    
     4    1   18 1    
     5    2    3 1    
     6    2   19 1    
     7    2   20 1    
     8    3    4 1    
     9    3   14 1    
    10    4    5 1    
    11    4   21 1    
    12    4   22 1    
    13    5    6 1    
    14    5   23 1    
    15    5   24 1    
    16    6    7 1    
    17    7    8 1    
    18    7   25 1    
    19    7   26 1    
    20    8    9 1    
    21    8   27 1    
    22    8   28 1    
    23    9   10 1    
    24    9   29 1    
    25    9   30 1    
    26   10   11 2    
    27   10   12 2    
    28   10   13 1    
    29   13   31 1    
    30   14   15 1    
    31   14   32 1    
    32   14   33 1    
    33   15   16 1    
    34   15   34 1    
    35   15   35 1    
    36   16   36 1    
@<TRIPOS>SUBSTRUCTURE
     1 UNK         1 GROUP             0       ****    0 ROOT    
@<TRIPOS>MOLECULE
EPPS
36   36    1
SMALL
USER_CHARGES


@<TRIPOS>ATOM
      1 C1         -3.8802   -2.7917    5.1779 C.3       1 UNK         0.0986 
      2 C2         -5.2318   -2.8148    4.4042 C.3       1 UNK         0.1007 
      3 N3         -5.0357   -3.2089    2.9947 N.3       1 UNK        -0.7113 
      4 C4         -4.0722   -2.2763    2.3768 C.3       1 UNK         0.1007 
      5 C5         -2.7222   -2.2705    3.1502 C.3       1 UNK         0.0986 
      6 N6         -2.8784   -1.8888    4.5714 N.3       1 UNK        -0.7051 
      7 C7         -3.1978   -0.4702    4.7999 C.3       1 UNK         0.1131 
      8 C8         -2.0829    0.4879    4.3166 C.3       1 UNK        -0.1197 
      9 C9         -0.6116    0.1436    4.6899 C.3       1 UNK        -0.2881 
     10 S10        -0.3850   -0.4142    6.4672 S.3       1 UNK         1.0110 
     11 O11        -1.3316    0.2816    7.3455 O.2       1 UNK        -0.4915 
     12 O12         1.0436   -0.4740    6.7957 O.2       1 UNK        -0.4915 
     13 O13        -0.9092   -1.9596    6.2817 O.3       1 UNK        -0.5020 
     14 C14        -6.2955   -3.2018    2.2254 C.3       1 UNK         0.0871 
     15 C15        -7.3390   -4.2849    2.6007 C.3       1 UNK         0.1330 
     16 O16        -8.0550   -3.9946    3.7946 O.3       1 UNK        -0.6627 
     17 H17        -3.4738   -3.8045    5.2258 H         1 UNK         0.0691 
     18 H18        -4.0646   -2.5073    6.2161 H         1 UNK         0.0691 
     19 H19        -5.7375   -1.8498    4.4796 H         1 UNK         0.0706 
     20 H20        -5.8773   -3.5365    4.9047 H         1 UNK         0.0706 
     21 H21        -4.4803   -1.2647    2.3198 H         1 UNK         0.0706 
     22 H22        -3.8757   -2.5794    1.3463 H         1 UNK         0.0706 
     23 H23        -2.2682   -3.2622    3.0915 H         1 UNK         0.0691 
     24 H24        -2.0187   -1.6078    2.6447 H         1 UNK         0.0691 
     25 H25        -4.1311   -0.2092    4.2969 H         1 UNK         0.0626 
     26 H26        -3.3790   -0.2995    5.8633 H         1 UNK         0.0626 
     27 H27        -2.1763    0.6461    3.2410 H         1 UNK         0.0883 
     28 H28        -2.3162    1.4706    4.7309 H         1 UNK         0.0883 
     29 H29         0.0337    1.0118    4.5761 H         1 UNK         0.1467 
     30 H30        -0.1997   -0.6485    4.0691 H         1 UNK         0.1467 
     31 H31        -1.6912   -1.9249    5.6642 H         1 UNK         0.3980 
     32 H32        -6.0061   -3.4592    1.2038 H         1 UNK         0.0752 
     33 H33        -6.7630   -2.2215    2.1074 H         1 UNK         0.0752 
     34 H34        -6.8631   -5.2652    2.6692 H         1 UNK         0.0513 
     35 H35        -8.0635   -4.3725    1.7889 H         1 UNK         0.0513 
     36 H36        -8.6867   -4.7141    3.9488 H         1 UNK         0.4242 
@<TRIPOS>BOND
     1    1    2 1    
     2    1    6 1    
     3    1   17 1    
     4    1   18 1    
     5    2    3 1    
     6    2   19 1    
     7    2   20 1    
     8    3    4 1    
     9    3   14 1    
    10    4    5 1    
    11    4   21 1    
    12    4   22 1    
    13    5    6 1    
    14    5   23 1    
    15    5   24 1    
    16    6    7 1    
    17    7    8 1    
    18    7   25 1    
    19    7   26 1    
    20    8    9 1    
    21    8   27 1    
    22    8   28 1    
    23    9   10 1    
    24    9   29 1    
    25    9   30 1    
    26   10   11 2    
    27   10   12 2    
    28   10   13 1    
    29   13   31 1    
    30   14   15 1    
    31   14   32 1    
    32   14   33 1    
    33   15   16 1    
    34   15   34 1    
    35   15   35 1    
    36   16   36 1    
@<TRIPOS>SUBSTRUCTURE
     1 UNK         1 GROUP             0       ****    0 ROOT    
@<TRIPOS>MOLECULE
EPPS
36   36    1
SMALL
USER_CHARGES


@<TRIPOS>ATOM
      1 C1         -4.6477    0.0793    3.6601 C.3       1 UNK         0.0986 
      2 C2         -5.8020   -0.9756    3.7138 C.3       1 UNK         0.1007 
      3 N3         -5.3376   -2.3667    3.8972 N.3       1 UNK        -0.7113 
      4 C4         -4.3115   -2.6583    2.8734 C.3       1 UNK         0.1007 
      5 C5         -3.1659   -1.5950    2.7984 C.3       1 UNK         0.0986 
      6 N6         -3.3013   -0.5116    3.7951 N.3       1 UNK        -0.7051 
      7 C7         -2.2553    0.5093    3.6746 C.3       1 UNK         0.1131 
      8 C8         -0.8824    0.0225    4.1904 C.3       1 UNK        -0.1197 
      9 C9         -0.7733   -0.2534    5.7168 C.3       1 UNK        -0.2881 
     10 S10        -1.5431   -1.8782    6.2656 S.3       1 UNK         1.0110 
     11 O11        -1.2306   -2.1154    7.6792 O.2       1 UNK        -0.4915 
     12 O12        -1.3090   -2.9188    5.2591 O.2       1 UNK        -0.4915 
     13 O13        -3.1191   -1.4367    6.1827 O.3       1 UNK        -0.5020 
     14 C14        -6.4649   -3.3168    3.8593 C.3       1 UNK         0.0871 
     15 C15        -6.2372   -4.6347    4.6382 C.3       1 UNK         0.1330 
     16 O16        -5.2845   -5.4922    4.0300 O.3       1 UNK        -0.6627 
     17 H17        -4.8035    0.8064    4.4599 H         1 UNK         0.0691 
     18 H18        -4.7210    0.6432    2.7270 H         1 UNK         0.0691 
     19 H19        -6.4009   -0.8955    2.8034 H         1 UNK         0.0706 
     20 H20        -6.4716   -0.7107    4.5346 H         1 UNK         0.0706 
     21 H21        -4.7784   -2.7496    1.8898 H         1 UNK         0.0706 
     22 H22        -3.8516   -3.6253    3.0730 H         1 UNK         0.0706 
     23 H23        -2.2131   -2.1090    2.9291 H         1 UNK         0.0691 
     24 H24        -3.1359   -1.1745    1.7904 H         1 UNK         0.0691 
     25 H25        -2.1728    0.8674    2.6453 H         1 UNK         0.0626 
     26 H26        -2.5397    1.3790    4.2721 H         1 UNK         0.0626 
     27 H27        -0.5228   -0.8279    3.6097 H         1 UNK         0.0883 
     28 H28        -0.1715    0.8167    3.9560 H         1 UNK         0.0883 
     29 H29        -1.2434    0.5222    6.3173 H         1 UNK         0.1467 
     30 H30         0.2676   -0.3232    6.0247 H         1 UNK         0.1467 
     31 H31        -3.2779   -1.1629    5.2340 H         1 UNK         0.3980 
     32 H32        -6.9049   -3.4884    2.8743 H         1 UNK         0.0752 
     33 H33        -7.2869   -2.8418    4.4004 H         1 UNK         0.0752 
     34 H34        -5.9503   -4.4208    5.6697 H         1 UNK         0.0513 
     35 H35        -7.1843   -5.1728    4.7050 H         1 UNK         0.0513 
     36 H36        -4.4191   -5.0711    4.1372 H         1 UNK         0.4242 
@<TRIPOS>BOND
     1    1    2 1    
     2    1    6 1    
     3    1   17 1    
     4    1   18 1    
     5    2    3 1    
     6    2   19 1    
     7    2   20 1    
     8    3    4 1    
     9    3   14 1    
    10    4    5 1    
    11    4   21 1    
    12    4   22 1    
    13    5    6 1    
    14    5   23 1    
    15    5   24 1    
    16    6    7 1    
    17    7    8 1    
    18    7   25 1    
    19    7   26 1    
    20    8    9 1    
    21    8   27 1    
    22    8   28 1    
    23    9   10 1    
    24    9   29 1    
    25    9   30 1    
    26   10   11 2    
    27   10   12 2    
    28   10   13 1    
    29   13   31 1    
    30   14   15 1    
    31   14   32 1    
    32   14   33 1    
    33   15   16 1    
    34   15   34 1    
    35   15   35 1    
    36   16   36 1    
@<TRIPOS>SUBSTRUCTURE
     1 UNK         1 GROUP             0       ****    0 ROOT    
@<TRIPOS>MOLECULE
EPPS
36   36    1
SMALL
USER_CHARGES


@<TRIPOS>ATOM
      1 C1         -4.4570   -0.7299    4.5756 C.3       1 UNK         0.0986 
      2 C2         -5.3877   -1.8105    5.2008 C.3       1 UNK         0.1007 
      3 N3         -5.5544   -2.9907    4.3291 N.3       1 UNK        -0.7113 
      4 C4         -4.2144   -3.5179    3.9941 C.3       1 UNK         0.1007 
      5 C5         -3.2855   -2.4368    3.3680 C.3       1 UNK         0.0986 
      6 N6         -3.1194   -1.2910    4.2864 N.3       1 UNK        -0.7051 
      7 C7         -2.2170   -0.2986    3.6863 C.3       1 UNK         0.1131 
      8 C8         -1.8732    0.8667    4.6454 C.3       1 UNK        -0.1197 
      9 C9         -1.4908    0.5168    6.1132 C.3       1 UNK        -0.2881 
     10 S10        -0.3233   -0.9438    6.2735 S.3       1 UNK         1.0110 
     11 O11         0.1775   -1.0363    7.6493 O.2       1 UNK        -0.4915 
     12 O12         0.5968   -0.9904    5.1320 O.2       1 UNK        -0.4915 
     13 O13        -1.4348   -2.1367    6.0765 O.3       1 UNK        -0.5020 
     14 C14        -6.4407   -2.7165    3.1779 C.3       1 UNK         0.0871 
     15 C15        -6.8195   -3.9425    2.3088 C.3       1 UNK         0.1330 
     16 O16        -7.6340   -4.8723    3.0120 O.3       1 UNK        -0.6627 
     17 H17        -4.3753    0.0956    5.2842 H         1 UNK         0.0691 
     18 H18        -4.9115   -0.3078    3.6765 H         1 UNK         0.0691 
     19 H19        -6.3601   -1.3679    5.4260 H         1 UNK         0.0706 
     20 H20        -4.9835   -2.1254    6.1652 H         1 UNK         0.0706 
     21 H21        -4.2854   -4.3752    3.3246 H         1 UNK         0.0706 
     22 H22        -3.7488   -3.9097    4.9010 H         1 UNK         0.0706 
     23 H23        -2.3138   -2.8923    3.1650 H         1 UNK         0.0691 
     24 H24        -3.6730   -2.1162    2.3982 H         1 UNK         0.0691 
     25 H25        -1.2906   -0.7802    3.3648 H         1 UNK         0.0626 
     26 H26        -2.6726    0.1069    2.7789 H         1 UNK         0.0626 
     27 H27        -1.0351    1.4025    4.1956 H         1 UNK         0.0883 
     28 H28        -2.6761    1.6054    4.6269 H         1 UNK         0.0883 
     29 H29        -2.3590    0.2784    6.7231 H         1 UNK         0.1467 
     30 H30        -0.9786    1.3484    6.5919 H         1 UNK         0.1467 
     31 H31        -2.0567   -1.8321    5.3585 H         1 UNK         0.3980 
     32 H32        -5.9191   -2.0243    2.5150 H         1 UNK         0.0752 
     33 H33        -7.3446   -2.1613    3.4379 H         1 UNK         0.0752 
     34 H34        -7.3763   -3.5956    1.4365 H         1 UNK         0.0513 
     35 H35        -5.9374   -4.4376    1.9015 H         1 UNK         0.0513 
     36 H36        -7.8283   -5.6138    2.4177 H         1 UNK         0.4242 
@<TRIPOS>BOND
     1    1    2 1    
     2    1    6 1    
     3    1   17 1    
     4    1   18 1    
     5    2    3 1    
     6    2   19 1    
     7    2   20 1    
     8    3    4 1    
     9    3   14 1    
    10    4    5 1    
    11    4   21 1    
    12    4   22 1    
    13    5    6 1    
    14    5   23 1    
    15    5   24 1    
    16    6    7 1    
    17    7    8 1    
    18    7   25 1    
    19    7   26 1    
    20    8    9 1    
    21    8   27 1    
    22    8   28 1    
    23    9   10 1    
    24    9   29 1    
    25    9   30 1    
    26   10   11 2    
    27   10   12 2    
    28   10   13 1    
    29   13   31 1    
    30   14   15 1    
    31   14   32 1    
    32   14   33 1    
    33   15   16 1    
    34   15   34 1    
    35   15   35 1    
    36   16   36 1    
@<TRIPOS>SUBSTRUCTURE
     1 UNK         1 GROUP             0       ****    0 ROOT    
@<TRIPOS>MOLECULE
EPPS
36   36    1
SMALL
USER_CHARGES


@<TRIPOS>ATOM
      1 C1         -4.2734   -0.2992    3.9029 C.3       1 UNK         0.0986 
      2 C2         -5.3286   -1.4487    3.7939 C.3       1 UNK         0.1007 
      3 N3         -4.7939   -2.7104    3.2404 N.3       1 UNK        -0.7113 
      4 C4         -4.0350   -2.4327    2.0053 C.3       1 UNK         0.1007 
      5 C5         -2.9750   -1.2917    2.1487 C.3       1 UNK         0.0986 
      6 N6         -2.9095   -0.7054    3.5022 N.3       1 UNK        -0.7051 
      7 C7         -1.9486    0.4022    3.5524 C.3       1 UNK         0.1131 
      8 C8         -1.5577    0.7964    4.9945 C.3       1 UNK        -0.1197 
      9 C9         -0.7440   -0.2529    5.8034 C.3       1 UNK        -0.2881 
     10 S10        -1.7741   -1.6708    6.4821 S.3       1 UNK         1.0110 
     11 O11        -3.0841   -1.1813    6.9235 O.2       1 UNK        -0.4915 
     12 O12        -0.9448   -2.5002    7.3635 O.2       1 UNK        -0.4915 
     13 O13        -1.9839   -2.5024    5.0857 O.3       1 UNK        -0.5020 
     14 C14        -5.8192   -3.7452    3.0050 C.3       1 UNK         0.0871 
     15 C15        -6.6083   -4.2204    4.2518 C.3       1 UNK         0.1330 
     16 O16        -5.7929   -4.9390    5.1688 O.3       1 UNK        -0.6627 
     17 H17        -4.2699    0.0634    4.9313 H         1 UNK         0.0691 
     18 H18        -4.6052    0.5464    3.2957 H         1 UNK         0.0691 
     19 H19        -6.1760   -1.1035    3.1973 H         1 UNK         0.0706 
     20 H20        -5.7205   -1.6351    4.7949 H         1 UNK         0.0706 
     21 H21        -4.7197   -2.1795    1.1924 H         1 UNK         0.0706 
     22 H22        -3.5235   -3.3445    1.6902 H         1 UNK         0.0706 
     23 H23        -1.9949   -1.6940    1.8836 H         1 UNK         0.0691 
     24 H24        -3.1858   -0.5140    1.4105 H         1 UNK         0.0691 
     25 H25        -1.0335    0.0990    3.0376 H         1 UNK         0.0626 
     26 H26        -2.3238    1.2720    3.0070 H         1 UNK         0.0626 
     27 H27        -0.9340    1.6878    4.9067 H         1 UNK         0.0883 
     28 H28        -2.4258    1.1409    5.5577 H         1 UNK         0.0883 
     29 H29        -0.2881    0.2015    6.6802 H         1 UNK         0.1467 
     30 H30         0.0507   -0.7094    5.2176 H         1 UNK         0.1467 
     31 H31        -2.4453   -1.8748    4.4585 H         1 UNK         0.3980 
     32 H32        -5.4573   -4.6116    2.4470 H         1 UNK         0.0752 
     33 H33        -6.5563   -3.3114    2.3249 H         1 UNK         0.0752 
     34 H34        -7.1069   -3.3894    4.7526 H         1 UNK         0.0513 
     35 H35        -7.4153   -4.8794    3.9264 H         1 UNK         0.0513 
     36 H36        -6.3441   -5.1997    5.9227 H         1 UNK         0.4242 
@<TRIPOS>BOND
     1    1    2 1    
     2    1    6 1    
     3    1   17 1    
     4    1   18 1    
     5    2    3 1    
     6    2   19 1    
     7    2   20 1    
     8    3    4 1    
     9    3   14 1    
    10    4    5 1    
    11    4   21 1    
    12    4   22 1    
    13    5    6 1    
    14    5   23 1    
    15    5   24 1    
    16    6    7 1    
    17    7    8 1    
    18    7   25 1    
    19    7   26 1    
    20    8    9 1    
    21    8   27 1    
    22    8   28 1    
    23    9   10 1    
    24    9   29 1    
    25    9   30 1    
    26   10   11 2    
    27   10   12 2    
    28   10   13 1    
    29   13   31 1    
    30   14   15 1    
    31   14   32 1    
    32   14   33 1    
    33   15   16 1    
    34   15   34 1    
    35   15   35 1    
    36   16   36 1    
@<TRIPOS>SUBSTRUCTURE
     1 UNK         1 GROUP             0       ****    0 ROOT    
@<TRIPOS>MOLECULE
EPPS
36   36    1
SMALL
USER_CHARGES


@<TRIPOS>ATOM
      1 C1         -4.3635   -0.0911    3.1688 C.3       1 UNK         0.0986 
      2 C2         -5.4860   -1.1771    3.0858 C.3       1 UNK         0.1007 
      3 N3         -5.0375   -2.5359    3.4479 N.3       1 UNK        -0.7113 
      4 C4         -3.8096   -2.8739    2.6981 C.3       1 UNK         0.1007 
      5 C5         -2.7028   -1.7698    2.7526 C.3       1 UNK         0.0986 
      6 N6         -3.0565   -0.6180    3.6094 N.3       1 UNK        -0.7051 
      7 C7         -2.0326    0.4326    3.6023 C.3       1 UNK         0.1131 
      8 C8         -0.7701    0.0476    4.4057 C.3       1 UNK        -0.1197 
      9 C9         -0.9460   -0.1021    5.9432 C.3       1 UNK        -0.2881 
     10 S10        -1.7535   -1.7144    6.4733 S.3       1 UNK         1.0110 
     11 O11        -1.7109   -1.8256    7.9355 O.2       1 UNK        -0.4915 
     12 O12        -1.2943   -2.8164    5.6217 O.2       1 UNK        -0.4915 
     13 O13        -3.2976   -1.3565    6.0567 O.3       1 UNK        -0.5020 
     14 C14        -6.1289   -3.5136    3.2823 C.3       1 UNK         0.0871 
     15 C15        -5.8144   -4.9648    3.7288 C.3       1 UNK         0.1330 
     16 O16        -5.5624   -5.0622    5.1248 O.3       1 UNK        -0.6627 
     17 H17        -4.6874    0.6899    3.8601 H         1 UNK         0.0691 
     18 H18        -4.2653    0.3962    2.1956 H         1 UNK         0.0691 
     19 H19        -5.9055   -1.1761    2.0770 H         1 UNK         0.0706 
     20 H20        -6.3031   -0.8836    3.7481 H         1 UNK         0.0706 
     21 H21        -4.0512   -3.0897    1.6549 H         1 UNK         0.0706 
     22 H22        -3.3838   -3.7923    3.1054 H         1 UNK         0.0706 
     23 H23        -1.7792   -2.2302    3.1049 H         1 UNK         0.0691 
     24 H24        -2.4907   -1.4288    1.7365 H         1 UNK         0.0691 
     25 H25        -1.7648    0.7124    2.5802 H         1 UNK         0.0626 
     26 H26        -2.4482    1.3340    4.0596 H         1 UNK         0.0626 
     27 H27        -0.2829   -0.8292    3.9772 H         1 UNK         0.0883 
     28 H28        -0.0499    0.8511    4.2418 H         1 UNK         0.0883 
     29 H29        -1.5474    0.6942    6.3759 H         1 UNK         0.1467 
     30 H30         0.0183   -0.0979    6.4464 H         1 UNK         0.1467 
     31 H31        -3.2806   -1.1639    5.0755 H         1 UNK         0.3980 
     32 H32        -6.3546   -3.5652    2.2143 H         1 UNK         0.0752 
     33 H33        -7.0805   -3.1916    3.7111 H         1 UNK         0.0752 
     34 H34        -4.9822   -5.3859    3.1630 H         1 UNK         0.0513 
     35 H35        -6.6718   -5.5970    3.4912 H         1 UNK         0.0513 
     36 H36        -6.3151   -4.6710    5.5929 H         1 UNK         0.4242 
@<TRIPOS>BOND
     1    1    2 1    
     2    1    6 1    
     3    1   17 1    
     4    1   18 1    
     5    2    3 1    
     6    2   19 1    
     7    2   20 1    
     8    3    4 1    
     9    3   14 1    
    10    4    5 1    
    11    4   21 1    
    12    4   22 1    
    13    5    6 1    
    14    5   23 1    
    15    5   24 1    
    16    6    7 1    
    17    7    8 1    
    18    7   25 1    
    19    7   26 1    
    20    8    9 1    
    21    8   27 1    
    22    8   28 1    
    23    9   10 1    
    24    9   29 1    
    25    9   30 1    
    26   10   11 2    
    27   10   12 2    
    28   10   13 1    
    29   13   31 1    
    30   14   15 1    
    31   14   32 1    
    32   14   33 1    
    33   15   16 1    
    34   15   34 1    
    35   15   35 1    
    36   16   36 1    
@<TRIPOS>SUBSTRUCTURE
     1 UNK         1 GROUP             0       ****    0 ROOT    
@<TRIPOS>MOLECULE
EPPS
36   36    1
SMALL
USER_CHARGES


@<TRIPOS>ATOM
      1 C1         -4.2644    0.0047    4.3826 C.3       1 UNK         0.0986 
      2 C2         -5.4836   -0.9614    4.5424 C.3       1 UNK         0.1007 
      3 N3         -5.2788   -2.2977    3.9501 N.3       1 UNK        -0.7113 
      4 C4         -4.7808   -2.1601    2.5654 C.3       1 UNK         0.1007 
      5 C5         -3.5714   -1.1788    2.4161 C.3       1 UNK         0.0986 
      6 N6         -3.1068   -0.6066    3.6955 N.3       1 UNK        -0.7051 
      7 C7         -2.0080    0.3422    3.4828 C.3       1 UNK         0.1131 
      8 C8         -1.2411    0.6782    4.7816 C.3       1 UNK        -0.1197 
      9 C9         -0.4220   -0.4780    5.4215 C.3       1 UNK        -0.2881 
     10 S10        -1.4596   -1.7259    6.3690 S.3       1 UNK         1.0110 
     11 O11        -2.5459   -1.0467    7.0827 O.2       1 UNK        -0.4915 
     12 O12        -0.5771   -2.6691    7.0645 O.2       1 UNK        -0.4915 
     13 O13        -2.1075   -2.5179    5.0891 O.3       1 UNK        -0.5020 
     14 C14        -6.5002   -3.1171    4.0710 C.3       1 UNK         0.0871 
     15 C15        -6.3832   -4.5900    3.6019 C.3       1 UNK         0.1330 
     16 O16        -5.5313   -5.3604    4.4403 O.3       1 UNK        -0.6627 
     17 H17        -3.9717    0.3493    5.3749 H         1 UNK         0.0691 
     18 H18        -4.5884    0.8996    3.8458 H         1 UNK         0.0691 
     19 H19        -6.3684   -0.4893    4.1088 H         1 UNK         0.0706 
     20 H20        -5.6984   -1.0752    5.6070 H         1 UNK         0.0706 
     21 H21        -5.5884   -1.8381    1.9041 H         1 UNK         0.0706 
     22 H22        -4.4633   -3.1374    2.1992 H         1 UNK         0.0706 
     23 H23        -2.7467   -1.7146    1.9411 H         1 UNK         0.0691 
     24 H24        -3.8440   -0.3794    1.7226 H         1 UNK         0.0691 
     25 H25        -1.2912   -0.0994    2.7860 H         1 UNK         0.0626 
     26 H26        -2.3660    1.2566    3.0030 H         1 UNK         0.0626 
     27 H27        -0.5331    1.4669    4.5207 H         1 UNK         0.0883 
     28 H28        -1.8966    1.1490    5.5153 H         1 UNK         0.0883 
     29 H29         0.2848   -0.0940    6.1537 H         1 UNK         0.1467 
     30 H30         0.1416   -1.0488    4.6869 H         1 UNK         0.1467 
     31 H31        -2.6055   -1.8291    4.5621 H         1 UNK         0.3980 
     32 H32        -7.2567   -2.6534    3.4334 H         1 UNK         0.0752 
     33 H33        -6.9638   -3.0820    5.0593 H         1 UNK         0.0752 
     34 H34        -7.3759   -5.0435    3.6182 H         1 UNK         0.0513 
     35 H35        -6.0596   -4.6563    2.5623 H         1 UNK         0.0513 
     36 H36        -5.4953   -6.2625    4.0866 H         1 UNK         0.4242 
@<TRIPOS>BOND
     1    1    2 1    
     2    1    6 1    
     3    1   17 1    
     4    1   18 1    
     5    2    3 1    
     6    2   19 1    
     7    2   20 1    
     8    3    4 1    
     9    3   14 1    
    10    4    5 1    
    11    4   21 1    
    12    4   22 1    
    13    5    6 1    
    14    5   23 1    
    15    5   24 1    
    16    6    7 1    
    17    7    8 1    
    18    7   25 1    
    19    7   26 1    
    20    8    9 1    
    21    8   27 1    
    22    8   28 1    
    23    9   10 1    
    24    9   29 1    
    25    9   30 1    
    26   10   11 2    
    27   10   12 2    
    28   10   13 1    
    29   13   31 1    
    30   14   15 1    
    31   14   32 1    
    32   14   33 1    
    33   15   16 1    
    34   15   34 1    
    35   15   35 1    
    36   16   36 1    
@<TRIPOS>SUBSTRUCTURE
     1 UNK         1 GROUP             0       ****    0 ROOT    
@<TRIPOS>MOLECULE
EPPS
36   36    1
SMALL
USER_CHARGES


@<TRIPOS>ATOM
      1 C1         -4.3844   -0.4282    3.1339 C.3       1 UNK         0.0986 
      2 C2         -5.2540   -1.7195    2.9791 C.3       1 UNK         0.1007 
      3 N3         -4.5365   -2.9718    3.2969 N.3       1 UNK        -0.7113 
      4 C4         -3.2446   -3.0020    2.5839 C.3       1 UNK         0.1007 
      5 C5         -2.3903   -1.7026    2.7487 C.3       1 UNK         0.0986 
      6 N6         -3.0151   -0.6866    3.6224 N.3       1 UNK        -0.7051 
      7 C7         -2.2363    0.5548    3.6946 C.3       1 UNK         0.1131 
      8 C8         -0.9502    0.4122    4.5394 C.3       1 UNK        -0.1197 
      9 C9         -1.1451    0.1780    6.0640 C.3       1 UNK        -0.2881 
     10 S10        -1.6273   -1.5805    6.5188 S.3       1 UNK         1.0110 
     11 O11        -1.6205   -1.7282    7.9785 O.2       1 UNK        -0.4915 
     12 O12        -0.9207   -2.5391    5.6629 O.2       1 UNK        -0.4915 
     13 O13        -3.1940   -1.5290    6.0415 O.3       1 UNK        -0.5020 
     14 C14        -5.3141   -4.1959    3.0238 C.3       1 UNK         0.0871 
     15 C15        -6.6398   -4.3527    3.8119 C.3       1 UNK         0.1330 
     16 O16        -6.4235   -4.5493    5.2036 O.3       1 UNK        -0.6627 
     17 H17        -4.8904    0.2500    3.8244 H         1 UNK         0.0691 
     18 H18        -4.3501    0.0960    2.1756 H         1 UNK         0.0691 
     19 H19        -5.6563   -1.7620    1.9644 H         1 UNK         0.0706 
     20 H20        -6.1158   -1.6214    3.6407 H         1 UNK         0.0706 
     21 H21        -3.4066   -3.1862    1.5192 H         1 UNK         0.0706 
     22 H22        -2.6596   -3.8496    2.9470 H         1 UNK         0.0706 
     23 H23        -1.4138   -1.9859    3.1428 H         1 UNK         0.0691 
     24 H24        -2.1955   -1.2780    1.7610 H         1 UNK         0.0691 
     25 H25        -1.9975    0.9272    2.6951 H         1 UNK         0.0626 
     26 H26        -2.8496    1.3288    4.1627 H         1 UNK         0.0626 
     27 H27        -0.2775   -0.3313    4.1101 H         1 UNK         0.0883 
     28 H28        -0.4067    1.3518    4.4259 H         1 UNK         0.0883 
     29 H29        -1.9099    0.8219    6.4925 H         1 UNK         0.1467 
     30 H30        -0.2196    0.3595    6.6060 H         1 UNK         0.1467 
     31 H31        -3.1779   -1.3067    5.0666 H         1 UNK         0.3980 
     32 H32        -4.7328   -5.1179    3.0957 H         1 UNK         0.0752 
     33 H33        -5.5895   -4.1666    1.9668 H         1 UNK         0.0752 
     34 H34        -7.1771   -5.2209    3.4260 H         1 UNK         0.0513 
     35 H35        -7.3097   -3.5084    3.6437 H         1 UNK         0.0513 
     36 H36        -7.2882   -4.6291    5.6350 H         1 UNK         0.4242 
@<TRIPOS>BOND
     1    1    2 1    
     2    1    6 1    
     3    1   17 1    
     4    1   18 1    
     5    2    3 1    
     6    2   19 1    
     7    2   20 1    
     8    3    4 1    
     9    3   14 1    
    10    4    5 1    
    11    4   21 1    
    12    4   22 1    
    13    5    6 1    
    14    5   23 1    
    15    5   24 1    
    16    6    7 1    
    17    7    8 1    
    18    7   25 1    
    19    7   26 1    
    20    8    9 1    
    21    8   27 1    
    22    8   28 1    
    23    9   10 1    
    24    9   29 1    
    25    9   30 1    
    26   10   11 2    
    27   10   12 2    
    28   10   13 1    
    29   13   31 1    
    30   14   15 1    
    31   14   32 1    
    32   14   33 1    
    33   15   16 1    
    34   15   34 1    
    35   15   35 1    
    36   16   36 1    
@<TRIPOS>SUBSTRUCTURE
     1 UNK         1 GROUP             0       ****    0 ROOT    
@<TRIPOS>MOLECULE
EPPS
36   36    1
SMALL
USER_CHARGES


@<TRIPOS>ATOM
      1 C1         -4.3574   -0.7458    4.5328 C.3       1 UNK         0.0986 
      2 C2         -5.1125   -2.1071    4.6884 C.3       1 UNK         0.1007 
      3 N3         -4.4258   -3.2416    4.0432 N.3       1 UNK        -0.7113 
      4 C4         -4.0739   -2.8979    2.6514 C.3       1 UNK         0.1007 
      5 C5         -3.3183   -1.5343    2.5158 C.3       1 UNK         0.0986 
      6 N6         -3.0738   -0.8550    3.8050 N.3       1 UNK        -0.7051 
      7 C7         -2.4207    0.4434    3.6055 C.3       1 UNK         0.1131 
      8 C8         -1.7989    1.0094    4.9020 C.3       1 UNK        -0.1197 
      9 C9         -0.5900    0.2274    5.4892 C.3       1 UNK        -0.2881 
     10 S10        -1.0614   -1.3364    6.4191 S.3       1 UNK         1.0110 
     11 O11        -2.3012   -1.1256    7.1735 O.2       1 UNK        -0.4915 
     12 O12         0.1282   -1.8974    7.0691 O.2       1 UNK        -0.4915 
     13 O13        -1.4056   -2.2873    5.1293 O.3       1 UNK        -0.5020 
     14 C14        -5.1198   -4.5333    4.2090 C.3       1 UNK         0.0871 
     15 C15        -6.4378   -4.7823    3.4256 C.3       1 UNK         0.1330 
     16 O16        -7.5375   -4.0290    3.9187 O.3       1 UNK        -0.6627 
     17 H17        -4.1898   -0.3350    5.5288 H         1 UNK         0.0691 
     18 H18        -5.0129   -0.0319    4.0283 H         1 UNK         0.0691 
     19 H19        -6.1170   -1.9891    4.2799 H         1 UNK         0.0706 
     20 H20        -5.2430   -2.3235    5.7505 H         1 UNK         0.0706 
     21 H21        -4.9723   -2.8546    2.0333 H         1 UNK         0.0706 
     22 H22        -3.4543   -3.6916    2.2293 H         1 UNK         0.0706 
     23 H23        -2.3630   -1.7160    2.0187 H         1 UNK         0.0691 
     24 H24        -3.8811   -0.8791    1.8462 H         1 UNK         0.0691 
     25 H25        -1.6119    0.3241    2.8804 H         1 UNK         0.0626 
     26 H26        -3.1121    1.1666    3.1656 H         1 UNK         0.0626 
     27 H27        -1.4437    2.0115    4.6555 H         1 UNK         0.0883 
     28 H28        -2.5622    1.1836    5.6613 H         1 UNK         0.0883 
     29 H29        -0.0546    0.8313    6.2185 H         1 UNK         0.1467 
     30 H30         0.1227   -0.0774    4.7262 H         1 UNK         0.1467 
     31 H31        -2.1342   -1.8193    4.6287 H         1 UNK         0.3980 
     32 H32        -5.2141   -4.8505    5.2494 H         1 UNK         0.0752 
     33 H33        -4.4122   -5.2718    3.8263 H         1 UNK         0.0752 
     34 H34        -6.3049   -4.6157    2.3559 H         1 UNK         0.0513 
     35 H35        -6.6946   -5.8398    3.5110 H         1 UNK         0.0513 
     36 H36        -8.3217   -4.2641    3.3990 H         1 UNK         0.4242 
@<TRIPOS>BOND
     1    1    2 1    
     2    1    6 1    
     3    1   17 1    
     4    1   18 1    
     5    2    3 1    
     6    2   19 1    
     7    2   20 1    
     8    3    4 1    
     9    3   14 1    
    10    4    5 1    
    11    4   21 1    
    12    4   22 1    
    13    5    6 1    
    14    5   23 1    
    15    5   24 1    
    16    6    7 1    
    17    7    8 1    
    18    7   25 1    
    19    7   26 1    
    20    8    9 1    
    21    8   27 1    
    22    8   28 1    
    23    9   10 1    
    24    9   29 1    
    25    9   30 1    
    26   10   11 2    
    27   10   12 2    
    28   10   13 1    
    29   13   31 1    
    30   14   15 1    
    31   14   32 1    
    32   14   33 1    
    33   15   16 1    
    34   15   34 1    
    35   15   35 1    
    36   16   36 1    
@<TRIPOS>SUBSTRUCTURE
     1 UNK         1 GROUP             0       ****    0 ROOT    
@<TRIPOS>MOLECULE
EPPS
36   36    1
SMALL
USER_CHARGES


@<TRIPOS>ATOM
      1 C1         -4.7714   -0.5518    4.1798 C.3       1 UNK         0.0986 
      2 C2         -5.5383   -1.9036    4.3607 C.3       1 UNK         0.1007 
      3 N3         -4.6542   -3.0836    4.3923 N.3       1 UNK        -0.7113 
      4 C4         -3.7385   -3.0636    3.2347 C.3       1 UNK         0.1007 
      5 C5         -2.9903   -1.7017    3.0508 C.3       1 UNK         0.0986 
      6 N6         -3.3038   -0.7028    4.0962 N.3       1 UNK        -0.7051 
      7 C7         -2.6498    0.5895    3.8635 C.3       1 UNK         0.1131 
      8 C8         -1.1323    0.5564    4.1534 C.3       1 UNK        -0.1197 
      9 C9         -0.7146    0.3472    5.6364 C.3       1 UNK        -0.2881 
     10 S10        -0.8517   -1.4298    6.2332 S.3       1 UNK         1.0110 
     11 O11        -0.2771   -1.5407    7.5785 O.2       1 UNK        -0.4915 
     12 O12        -0.4552   -2.3562    5.1677 O.2       1 UNK        -0.4915 
     13 O13        -2.4813   -1.5039    6.3919 O.3       1 UNK        -0.5020 
     14 C14        -5.3658   -4.3596    4.6007 C.3       1 UNK         0.0871 
     15 C15        -6.2313   -4.9328    3.4452 C.3       1 UNK         0.1330 
     16 O16        -7.4288   -4.2008    3.2216 O.3       1 UNK        -0.6627 
     17 H17        -5.0182    0.1008    5.0199 H         1 UNK         0.0691 
     18 H18        -5.1488   -0.0438    3.2889 H         1 UNK         0.0691 
     19 H19        -6.2642   -1.9955    3.5517 H         1 UNK         0.0706 
     20 H20        -6.1200   -1.8646    5.2838 H         1 UNK         0.0706 
     21 H21        -4.2845   -3.2812    2.3152 H         1 UNK         0.0706 
     22 H22        -3.0014   -3.8614    3.3452 H         1 UNK         0.0706 
     23 H23        -1.9187   -1.9026    3.0340 H         1 UNK         0.0691 
     24 H24        -3.2275   -1.2963    2.0643 H         1 UNK         0.0691 
     25 H25        -2.8376    0.9470    2.8479 H         1 UNK         0.0626 
     26 H26        -3.0931    1.3344    4.5291 H         1 UNK         0.0626 
     27 H27        -0.6214   -0.1489    3.4968 H         1 UNK         0.0883 
     28 H28        -0.7433    1.5282    3.8445 H         1 UNK         0.0883 
     29 H29        -1.3056    0.9447    6.3268 H         1 UNK         0.1467 
     30 H30         0.3308    0.6084    5.7856 H         1 UNK         0.1467 
     31 H31        -2.8557   -1.2991    5.4873 H         1 UNK         0.3980 
     32 H32        -5.8948   -4.4162    5.5541 H         1 UNK         0.0752 
     33 H33        -4.5703   -5.0911    4.7566 H         1 UNK         0.0752 
     34 H34        -6.5104   -5.9570    3.6995 H         1 UNK         0.0513 
     35 H35        -5.6571   -5.0239    2.5223 H         1 UNK         0.0513 
     36 H36        -7.9223   -4.6392    2.5112 H         1 UNK         0.4242 
@<TRIPOS>BOND
     1    1    2 1    
     2    1    6 1    
     3    1   17 1    
     4    1   18 1    
     5    2    3 1    
     6    2   19 1    
     7    2   20 1    
     8    3    4 1    
     9    3   14 1    
    10    4    5 1    
    11    4   21 1    
    12    4   22 1    
    13    5    6 1    
    14    5   23 1    
    15    5   24 1    
    16    6    7 1    
    17    7    8 1    
    18    7   25 1    
    19    7   26 1    
    20    8    9 1    
    21    8   27 1    
    22    8   28 1    
    23    9   10 1    
    24    9   29 1    
    25    9   30 1    
    26   10   11 2    
    27   10   12 2    
    28   10   13 1    
    29   13   31 1    
    30   14   15 1    
    31   14   32 1    
    32   14   33 1    
    33   15   16 1    
    34   15   34 1    
    35   15   35 1    
    36   16   36 1    
@<TRIPOS>SUBSTRUCTURE
     1 UNK         1 GROUP             0       ****    0 ROOT    
@<TRIPOS>MOLECULE
EPPS
36   36    1
SMALL
USER_CHARGES


@<TRIPOS>ATOM
      1 C1         -4.0124   -2.5514    5.3593 C.3       1 UNK         0.0986 
      2 C2         -5.4054   -2.4440    4.6710 C.3       1 UNK         0.1007 
      3 N3         -5.3380   -2.8870    3.2632 N.3       1 UNK        -0.7113 
      4 C4         -4.3229   -2.0816    2.5576 C.3       1 UNK         0.1007 
      5 C5         -2.9348   -2.2003    3.2507 C.3       1 UNK         0.0986 
      6 N6         -2.9618   -1.7732    4.6677 N.3       1 UNK        -0.7051 
      7 C7         -3.1143   -0.3238    4.8740 C.3       1 UNK         0.1131 
      8 C8         -1.9353    0.4978    4.2998 C.3       1 UNK        -0.1197 
      9 C9         -0.4890    0.0050    4.5963 C.3       1 UNK        -0.2881 
     10 S10        -0.2150   -0.5338    6.3728 S.3       1 UNK         1.0110 
     11 O11        -1.0272    0.2796    7.2842 O.2       1 UNK        -0.4915 
     12 O12         1.2165   -0.7398    6.6193 O.2       1 UNK        -0.4915 
     13 O13        -0.9108   -2.0174    6.2627 O.3       1 UNK        -0.5020 
     14 C14        -6.6334   -2.7832    2.5621 C.3       1 UNK         0.0871 
     15 C15        -7.7749   -3.6803    3.1058 C.3       1 UNK         0.1330 
     16 O16        -7.5186   -5.0642    2.9020 O.3       1 UNK        -0.6627 
     17 H17        -3.7132   -3.6008    5.4088 H         1 UNK         0.0691 
     18 H18        -4.0981   -2.2280    6.3989 H         1 UNK         0.0691 
     19 H19        -5.7926   -1.4258    4.7484 H         1 UNK         0.0706 
     20 H20        -6.0979   -3.0757    5.2285 H         1 UNK         0.0706 
     21 H21        -4.6241   -1.0339    2.4900 H         1 UNK         0.0706 
     22 H22        -4.2261   -2.4343    1.5287 H         1 UNK         0.0706 
     23 H23        -2.5905   -3.2353    3.1934 H         1 UNK         0.0691 
     24 H24        -2.1987   -1.6268    2.6858 H         1 UNK         0.0691 
     25 H25        -4.0430    0.0251    4.4182 H         1 UNK         0.0626 
     26 H26        -3.2116   -0.1111    5.9409 H         1 UNK         0.0626 
     27 H27        -2.0767    0.6416    3.2274 H         1 UNK         0.0883 
     28 H28        -2.0370    1.5087    4.6990 H         1 UNK         0.0883 
     29 H29         0.2370    0.7956    4.4200 H         1 UNK         0.1467 
     30 H30        -0.2026   -0.8408    3.9758 H         1 UNK         0.1467 
     31 H31        -1.7207   -1.9125    5.6908 H         1 UNK         0.3980 
     32 H32        -6.5643   -2.9000    1.4782 H         1 UNK         0.0752 
     33 H33        -6.9762   -1.7511    2.6707 H         1 UNK         0.0752 
     34 H34        -8.6996   -3.4259    2.5845 H         1 UNK         0.0513 
     35 H35        -7.9804   -3.4797    4.1580 H         1 UNK         0.0513 
     36 H36        -8.2644   -5.5661    3.2661 H         1 UNK         0.4242 
@<TRIPOS>BOND
     1    1    2 1    
     2    1    6 1    
     3    1   17 1    
     4    1   18 1    
     5    2    3 1    
     6    2   19 1    
     7    2   20 1    
     8    3    4 1    
     9    3   14 1    
    10    4    5 1    
    11    4   21 1    
    12    4   22 1    
    13    5    6 1    
    14    5   23 1    
    15    5   24 1    
    16    6    7 1    
    17    7    8 1    
    18    7   25 1    
    19    7   26 1    
    20    8    9 1    
    21    8   27 1    
    22    8   28 1    
    23    9   10 1    
    24    9   29 1    
    25    9   30 1    
    26   10   11 2    
    27   10   12 2    
    28   10   13 1    
    29   13   31 1    
    30   14   15 1    
    31   14   32 1    
    32   14   33 1    
    33   15   16 1    
    34   15   34 1    
    35   15   35 1    
    36   16   36 1    
@<TRIPOS>SUBSTRUCTURE
     1 UNK         1 GROUP             0       ****    0 ROOT    
@<TRIPOS>MOLECULE
EPPS
36   36    1
SMALL
USER_CHARGES


@<TRIPOS>ATOM
      1 C1         -3.2349   -3.4981    5.2418 C.3       1 UNK         0.0986 
      2 C2         -4.6712   -3.9428    4.8352 C.3       1 UNK         0.1007 
      3 N3         -4.7856   -4.0464    3.3678 N.3       1 UNK        -0.7113 
      4 C4         -4.4466   -2.7470    2.7598 C.3       1 UNK         0.1007 
      5 C5         -3.0088   -2.3136    3.1690 C.3       1 UNK         0.0986 
      6 N6         -2.8334   -2.2089    4.6360 N.3       1 UNK        -0.7051 
      7 C7         -3.5191   -1.0644    5.2577 C.3       1 UNK         0.1131 
      8 C8         -2.9914    0.3025    4.7598 C.3       1 UNK        -0.1197 
      9 C9         -1.4504    0.5055    4.6803 C.3       1 UNK        -0.2881 
     10 S10        -0.5162   -0.1460    6.1717 S.3       1 UNK         1.0110 
     11 O11        -1.3214    0.0121    7.3877 O.2       1 UNK        -0.4915 
     12 O12         0.8784    0.3069    6.1271 O.2       1 UNK        -0.4915 
     13 O13        -0.5273   -1.7362    5.7610 O.3       1 UNK        -0.5020 
     14 C14        -6.0868   -4.5716    2.9068 C.3       1 UNK         0.0871 
     15 C15        -7.3920   -3.8630    3.3646 C.3       1 UNK         0.1330 
     16 O16        -7.5902   -2.5970    2.7500 O.3       1 UNK        -0.6627 
     17 H17        -2.5208   -4.2725    4.9528 H         1 UNK         0.0691 
     18 H18        -3.1702   -3.4399    6.3304 H         1 UNK         0.0691 
     19 H19        -5.4023   -3.2433    5.2439 H         1 UNK         0.0706 
     20 H20        -4.8850   -4.9110    5.2921 H         1 UNK         0.0706 
     21 H21        -5.1584   -1.9724    3.0479 H         1 UNK         0.0706 
     22 H22        -4.5013   -2.8221    1.6720 H         1 UNK         0.0706 
     23 H23        -2.2889   -3.0325    2.7718 H         1 UNK         0.0691 
     24 H24        -2.7635   -1.3701    2.6797 H         1 UNK         0.0691 
     25 H25        -4.5924   -1.1196    5.0649 H         1 UNK         0.0626 
     26 H26        -3.4117   -1.1146    6.3434 H         1 UNK         0.0626 
     27 H27        -3.4584    0.5499    3.8052 H         1 UNK         0.0883 
     28 H28        -3.3979    1.0576    5.4354 H         1 UNK         0.0883 
     29 H29        -1.1979    1.5619    4.6214 H         1 UNK         0.1467 
     30 H30        -1.0113    0.0196    3.8121 H         1 UNK         0.1467 
     31 H31        -1.4262   -1.9259    5.3734 H         1 UNK         0.3980 
     32 H32        -6.1399   -5.5760    3.3322 H         1 UNK         0.0752 
     33 H33        -6.1156   -4.7942    1.8383 H         1 UNK         0.0752 
     34 H34        -8.2395   -4.4976    3.0994 H         1 UNK         0.0513 
     35 H35        -7.4404   -3.7761    4.4508 H         1 UNK         0.0513 
     36 H36        -8.4394   -2.2426    3.0558 H         1 UNK         0.4242 
@<TRIPOS>BOND
     1    1    2 1    
     2    1    6 1    
     3    1   17 1    
     4    1   18 1    
     5    2    3 1    
     6    2   19 1    
     7    2   20 1    
     8    3    4 1    
     9    3   14 1    
    10    4    5 1    
    11    4   21 1    
    12    4   22 1    
    13    5    6 1    
    14    5   23 1    
    15    5   24 1    
    16    6    7 1    
    17    7    8 1    
    18    7   25 1    
    19    7   26 1    
    20    8    9 1    
    21    8   27 1    
    22    8   28 1    
    23    9   10 1    
    24    9   29 1    
    25    9   30 1    
    26   10   11 2    
    27   10   12 2    
    28   10   13 1    
    29   13   31 1    
    30   14   15 1    
    31   14   32 1    
    32   14   33 1    
    33   15   16 1    
    34   15   34 1    
    35   15   35 1    
    36   16   36 1    
@<TRIPOS>SUBSTRUCTURE
     1 UNK         1 GROUP             0       ****    0 ROOT    
@<TRIPOS>MOLECULE
EPPS
36   36    1
SMALL
USER_CHARGES


@<TRIPOS>ATOM
      1 C1         -4.3588   -0.2683    3.3686 C.3       1 UNK         0.0986 
      2 C2         -5.2734   -1.5342    3.2735 C.3       1 UNK         0.1007 
      3 N3         -4.5651   -2.8088    3.5220 N.3       1 UNK        -0.7113 
      4 C4         -3.3475   -2.8615    2.6877 C.3       1 UNK         0.1007 
      5 C5         -2.4436   -1.5899    2.7951 C.3       1 UNK         0.0986 
      6 N6         -2.9617   -0.5734    3.7354 N.3       1 UNK        -0.7051 
      7 C7         -2.1419    0.6427    3.7660 C.3       1 UNK         0.1131 
      8 C8         -0.8013    0.4434    4.5079 C.3       1 UNK        -0.1197 
      9 C9         -0.8889    0.1772    6.0374 C.3       1 UNK        -0.2881 
     10 S10        -1.3773   -1.5811    6.4877 S.3       1 UNK         1.0110 
     11 O11        -1.2615   -1.7654    7.9386 O.2       1 UNK        -0.4915 
     12 O12        -0.7626   -2.5339    5.5576 O.2       1 UNK        -0.4915 
     13 O13        -2.9750   -1.4841    6.1352 O.3       1 UNK        -0.5020 
     14 C14        -5.3987   -4.0070    3.3135 C.3       1 UNK         0.0871 
     15 C15        -6.5440   -4.1140    4.3459 C.3       1 UNK         0.1330 
     16 O16        -7.2647   -5.3209    4.1484 O.3       1 UNK        -0.6627 
     17 H17        -4.7847    0.4136    4.1078 H         1 UNK         0.0691 
     18 H18        -4.3906    0.2683    2.4171 H         1 UNK         0.0691 
     19 H19        -5.7554   -1.5559    2.2934 H         1 UNK         0.0706 
     20 H20        -6.0780   -1.4156    4.0003 H         1 UNK         0.0706 
     21 H21        -3.6158   -3.0192    1.6403 H         1 UNK         0.0706 
     22 H22        -2.7543   -3.7316    2.9770 H         1 UNK         0.0706 
     23 H23        -1.4449   -1.9063    3.0978 H         1 UNK         0.0691 
     24 H24        -2.3238   -1.1536    1.8005 H         1 UNK         0.0691 
     25 H25        -1.9679    1.0246    2.7568 H         1 UNK         0.0626 
     26 H26        -2.6925    1.4269    4.2914 H         1 UNK         0.0626 
     27 H27        -0.1847   -0.3072    4.0117 H         1 UNK         0.0883 
     28 H28        -0.2404    1.3702    4.3749 H         1 UNK         0.0883 
     29 H29        -1.6047    0.8271    6.5357 H         1 UNK         0.1467 
     30 H30         0.0780    0.3253    6.5130 H         1 UNK         0.1467 
     31 H31        -3.0287   -1.2319    5.1689 H         1 UNK         0.3980 
     32 H32        -4.7451   -4.8743    3.4328 H         1 UNK         0.0752 
     33 H33        -5.8042   -3.9616    2.2999 H         1 UNK         0.0752 
     34 H34        -6.1465   -4.0900    5.3626 H         1 UNK         0.0513 
     35 H35        -7.2401   -3.2788    4.2577 H         1 UNK         0.0513 
     36 H36        -7.9677   -5.3649    4.8159 H         1 UNK         0.4242 
@<TRIPOS>BOND
     1    1    2 1    
     2    1    6 1    
     3    1   17 1    
     4    1   18 1    
     5    2    3 1    
     6    2   19 1    
     7    2   20 1    
     8    3    4 1    
     9    3   14 1    
    10    4    5 1    
    11    4   21 1    
    12    4   22 1    
    13    5    6 1    
    14    5   23 1    
    15    5   24 1    
    16    6    7 1    
    17    7    8 1    
    18    7   25 1    
    19    7   26 1    
    20    8    9 1    
    21    8   27 1    
    22    8   28 1    
    23    9   10 1    
    24    9   29 1    
    25    9   30 1    
    26   10   11 2    
    27   10   12 2    
    28   10   13 1    
    29   13   31 1    
    30   14   15 1    
    31   14   32 1    
    32   14   33 1    
    33   15   16 1    
    34   15   34 1    
    35   15   35 1    
    36   16   36 1    
@<TRIPOS>SUBSTRUCTURE
     1 UNK         1 GROUP             0       ****    0 ROOT    
@<TRIPOS>MOLECULE
EPPS
36   36    1
SMALL
USER_CHARGES


@<TRIPOS>ATOM
      1 C1         -4.8726   -0.3200    4.6816 C.3       1 UNK         0.0986 
      2 C2         -5.7015   -1.6347    4.8643 C.3       1 UNK         0.1007 
      3 N3         -4.9273   -2.8627    4.5956 N.3       1 UNK        -0.7113 
      4 C4         -4.2460   -2.7572    3.2917 C.3       1 UNK         0.1007 
      5 C5         -3.4323   -1.4327    3.1146 C.3       1 UNK         0.0986 
      6 N6         -3.4635   -0.5500    4.3015 N.3       1 UNK        -0.7051 
      7 C7         -2.7575    0.7178    4.0867 C.3       1 UNK         0.1131 
      8 C8         -1.2209    0.5554    4.0757 C.3       1 UNK        -0.1197 
      9 C9         -0.5582    0.1429    5.4205 C.3       1 UNK        -0.2881 
     10 S10        -0.7306   -1.6816    5.8376 S.3       1 UNK         1.0110 
     11 O11         0.0692   -1.9897    7.0283 O.2       1 UNK        -0.4915 
     12 O12        -0.6136   -2.4944    4.6226 O.2       1 UNK        -0.4915 
     13 O13        -2.3041   -1.6750    6.2962 O.3       1 UNK        -0.5020 
     14 C14        -5.6732   -4.1212    4.7875 C.3       1 UNK         0.0871 
     15 C15        -6.9891   -4.3406    3.9907 C.3       1 UNK         0.1330 
     16 O16        -6.7807   -4.5677    2.6031 O.3       1 UNK        -0.6627 
     17 H17        -4.9052    0.2424    5.6172 H         1 UNK         0.0691 
     18 H18        -5.3645    0.3122    3.9383 H         1 UNK         0.0691 
     19 H19        -6.5719   -1.5846    4.2078 H         1 UNK         0.0706 
     20 H20        -6.0925   -1.6698    5.8830 H         1 UNK         0.0706 
     21 H21        -4.9703   -2.8234    2.4787 H         1 UNK         0.0706 
     22 H22        -3.5734   -3.6081    3.1675 H         1 UNK         0.0706 
     23 H23        -2.4028   -1.6969    2.8710 H         1 UNK         0.0691 
     24 H24        -3.8115   -0.8971    2.2410 H         1 UNK         0.0691 
     25 H25        -3.0973    1.2057    3.1696 H         1 UNK         0.0626 
     26 H26        -3.0075    1.4036    4.9001 H         1 UNK         0.0626 
     27 H27        -0.8997   -0.0959    3.2619 H         1 UNK         0.0883 
     28 H28        -0.8148    1.5313    3.8038 H         1 UNK         0.0883 
     29 H29        -0.9621    0.6873    6.2712 H         1 UNK         0.1467 
     30 H30         0.5147    0.3199    5.3948 H         1 UNK         0.1467 
     31 H31        -2.8194   -1.3395    5.5073 H         1 UNK         0.3980 
     32 H32        -5.9726   -4.1002    5.8376 H         1 UNK         0.0752 
     33 H33        -5.0427   -5.0123    4.7678 H         1 UNK         0.0752 
     34 H34        -7.6850   -3.5145    4.1402 H         1 UNK         0.0513 
     35 H35        -7.5007   -5.2136    4.4001 H         1 UNK         0.0513 
     36 H36        -6.3412   -5.4253    2.4997 H         1 UNK         0.4242 
@<TRIPOS>BOND
     1    1    2 1    
     2    1    6 1    
     3    1   17 1    
     4    1   18 1    
     5    2    3 1    
     6    2   19 1    
     7    2   20 1    
     8    3    4 1    
     9    3   14 1    
    10    4    5 1    
    11    4   21 1    
    12    4   22 1    
    13    5    6 1    
    14    5   23 1    
    15    5   24 1    
    16    6    7 1    
    17    7    8 1    
    18    7   25 1    
    19    7   26 1    
    20    8    9 1    
    21    8   27 1    
    22    8   28 1    
    23    9   10 1    
    24    9   29 1    
    25    9   30 1    
    26   10   11 2    
    27   10   12 2    
    28   10   13 1    
    29   13   31 1    
    30   14   15 1    
    31   14   32 1    
    32   14   33 1    
    33   15   16 1    
    34   15   34 1    
    35   15   35 1    
    36   16   36 1    
@<TRIPOS>SUBSTRUCTURE
     1 UNK         1 GROUP             0       ****    0 ROOT    
@<TRIPOS>MOLECULE
EPPS
36   36    1
SMALL
USER_CHARGES


@<TRIPOS>ATOM
      1 C1         -4.3960   -0.5909    4.8371 C.3       1 UNK         0.0986 
      2 C2         -5.2085   -1.9073    5.0713 C.3       1 UNK         0.1007 
      3 N3         -4.6832   -3.0677    4.3250 N.3       1 UNK        -0.7113 
      4 C4         -4.4938   -2.7141    2.9056 C.3       1 UNK         0.1007 
      5 C5         -3.6758   -1.3974    2.6925 C.3       1 UNK         0.0986 
      6 N6         -3.2255   -0.7628    3.9486 N.3       1 UNK        -0.7051 
      7 C7         -2.5214    0.4967    3.6845 C.3       1 UNK         0.1131 
      8 C8         -1.7029    0.9936    4.8972 C.3       1 UNK        -0.1197 
      9 C9         -0.4814    0.1253    5.3113 C.3       1 UNK        -0.2881 
     10 S10        -0.9287   -1.4281    6.2702 S.3       1 UNK         1.0110 
     11 O11        -2.0459   -1.1594    7.1815 O.2       1 UNK        -0.4915 
     12 O12         0.2961   -2.0758    6.7526 O.2       1 UNK        -0.4915 
     13 O13        -1.4950   -2.3258    5.0214 O.3       1 UNK        -0.5020 
     14 C14        -5.4183   -4.3286    4.5412 C.3       1 UNK         0.0871 
     15 C15        -6.9422   -4.3682    4.2398 C.3       1 UNK         0.1330 
     16 O16        -7.2474   -4.3189    2.8525 O.3       1 UNK        -0.6627 
     17 H17        -4.0768   -0.2115    5.8082 H         1 UNK         0.0691 
     18 H18        -5.0644    0.1717    4.4303 H         1 UNK         0.0691 
     19 H19        -6.2487   -1.7205    4.7989 H         1 UNK         0.0706 
     20 H20        -5.2116   -2.1369    6.1387 H         1 UNK         0.0706 
     21 H21        -5.4596   -2.5989    2.4117 H         1 UNK         0.0706 
     22 H22        -3.9887   -3.5354    2.3937 H         1 UNK         0.0706 
     23 H23        -2.8054   -1.6272    2.0741 H         1 UNK         0.0691 
     24 H24        -4.2762   -0.6943    2.1099 H         1 UNK         0.0691 
     25 H25        -1.8217    0.3436    2.8591 H         1 UNK         0.0626 
     26 H26        -3.2155    1.2712    3.3480 H         1 UNK         0.0626 
     27 H27        -1.3188    1.9773    4.6213 H         1 UNK         0.0883 
     28 H28        -2.3495    1.1973    5.7517 H         1 UNK         0.0883 
     29 H29         0.1806    0.6778    5.9743 H         1 UNK         0.1467 
     30 H30         0.1067   -0.2048    4.4579 H         1 UNK         0.1467 
     31 H31        -2.2510   -1.8030    4.6269 H         1 UNK         0.3980 
     32 H32        -5.3321   -4.5111    5.6145 H         1 UNK         0.0752 
     33 H33        -4.9102   -5.2071    4.1386 H         1 UNK         0.0752 
     34 H34        -7.3505   -5.2981    4.6400 H         1 UNK         0.0513 
     35 H35        -7.4724   -3.5789    4.7738 H         1 UNK         0.0513 
     36 H36        -6.9413   -5.1439    2.4461 H         1 UNK         0.4242 
@<TRIPOS>BOND
     1    1    2 1    
     2    1    6 1    
     3    1   17 1    
     4    1   18 1    
     5    2    3 1    
     6    2   19 1    
     7    2   20 1    
     8    3    4 1    
     9    3   14 1    
    10    4    5 1    
    11    4   21 1    
    12    4   22 1    
    13    5    6 1    
    14    5   23 1    
    15    5   24 1    
    16    6    7 1    
    17    7    8 1    
    18    7   25 1    
    19    7   26 1    
    20    8    9 1    
    21    8   27 1    
    22    8   28 1    
    23    9   10 1    
    24    9   29 1    
    25    9   30 1    
    26   10   11 2    
    27   10   12 2    
    28   10   13 1    
    29   13   31 1    
    30   14   15 1    
    31   14   32 1    
    32   14   33 1    
    33   15   16 1    
    34   15   34 1    
    35   15   35 1    
    36   16   36 1    
@<TRIPOS>SUBSTRUCTURE
     1 UNK         1 GROUP             0       ****    0 ROOT    
@<TRIPOS>MOLECULE
EPPS
36   36    1
SMALL
USER_CHARGES


@<TRIPOS>ATOM
      1 C1         -4.4615   -1.4000    4.7284 C.3       1 UNK         0.0986 
      2 C2         -4.9859   -2.7962    5.1740 C.3       1 UNK         0.1007 
      3 N3         -4.8854   -3.8121    4.1027 N.3       1 UNK        -0.7113 
      4 C4         -3.4828   -3.8549    3.6401 C.3       1 UNK         0.1007 
      5 C5         -2.9570   -2.4588    3.1938 C.3       1 UNK         0.0986 
      6 N6         -3.0483   -1.4841    4.3006 N.3       1 UNK        -0.7051 
      7 C7         -2.5211   -0.1841    3.8635 C.3       1 UNK         0.1131 
      8 C8         -2.4437    0.8544    5.0087 C.3       1 UNK        -0.1197 
      9 C9         -1.8537    0.3941    6.3737 C.3       1 UNK        -0.2881 
     10 S10        -0.3084   -0.6604    6.2239 S.3       1 UNK         1.0110 
     11 O11         0.3136   -0.8279    7.5419 O.2       1 UNK        -0.4915 
     12 O12         0.4857   -0.2417    5.0637 O.2       1 UNK        -0.4915 
     13 O13        -1.0454   -2.0789    5.8472 O.3       1 UNK        -0.5020 
     14 C14        -5.8412   -3.6566    2.9869 C.3       1 UNK         0.0871 
     15 C15        -7.3024   -3.9005    3.4273 C.3       1 UNK         0.1330 
     16 O16        -8.1659   -3.8193    2.3039 O.3       1 UNK        -0.6627 
     17 H17        -4.5599   -0.7174    5.5738 H         1 UNK         0.0691 
     18 H18        -5.0915   -0.9878    3.9373 H         1 UNK         0.0691 
     19 H19        -6.0092   -2.7034    5.5375 H         1 UNK         0.0706 
     20 H20        -4.4124   -3.1338    6.0401 H         1 UNK         0.0706 
     21 H21        -3.3766   -4.5639    2.8165 H         1 UNK         0.0706 
     22 H22        -2.8484   -4.2454    4.4388 H         1 UNK         0.0706 
     23 H23        -1.9168   -2.5656    2.8784 H         1 UNK         0.0691 
     24 H24        -3.5028   -2.1117    2.3133 H         1 UNK         0.0691 
     25 H25        -3.1489    0.2131    3.0613 H         1 UNK         0.0626 
     26 H26        -1.5267   -0.3095    3.4288 H         1 UNK         0.0626 
     27 H27        -1.8348    1.6812    4.6380 H         1 UNK         0.0883 
     28 H28        -3.4225    1.3146    5.1527 H         1 UNK         0.0883 
     29 H29        -2.5623   -0.1890    6.9570 H         1 UNK         0.1467 
     30 H30        -1.5615    1.2482    6.9805 H         1 UNK         0.1467 
     31 H31        -1.7873   -1.8571    5.2182 H         1 UNK         0.3980 
     32 H32        -5.5795   -4.4093    2.2399 H         1 UNK         0.0752 
     33 H33        -5.7368   -2.6519    2.5740 H         1 UNK         0.0752 
     34 H34        -7.4036   -4.8839    3.8910 H         1 UNK         0.0513 
     35 H35        -7.6276   -3.1663    4.1651 H         1 UNK         0.0513 
     36 H36        -9.0717   -3.9922    2.6064 H         1 UNK         0.4242 
@<TRIPOS>BOND
     1    1    2 1    
     2    1    6 1    
     3    1   17 1    
     4    1   18 1    
     5    2    3 1    
     6    2   19 1    
     7    2   20 1    
     8    3    4 1    
     9    3   14 1    
    10    4    5 1    
    11    4   21 1    
    12    4   22 1    
    13    5    6 1    
    14    5   23 1    
    15    5   24 1    
    16    6    7 1    
    17    7    8 1    
    18    7   25 1    
    19    7   26 1    
    20    8    9 1    
    21    8   27 1    
    22    8   28 1    
    23    9   10 1    
    24    9   29 1    
    25    9   30 1    
    26   10   11 2    
    27   10   12 2    
    28   10   13 1    
    29   13   31 1    
    30   14   15 1    
    31   14   32 1    
    32   14   33 1    
    33   15   16 1    
    34   15   34 1    
    35   15   35 1    
    36   16   36 1    
@<TRIPOS>SUBSTRUCTURE
     1 UNK         1 GROUP             0       ****    0 ROOT    
@<TRIPOS>MOLECULE
EPPS
36   36    1
SMALL
USER_CHARGES


@<TRIPOS>ATOM
      1 C1         -4.5551   -1.5238    4.4170 C.3       1 UNK         0.0986 
      2 C2         -4.9480   -2.9531    4.8891 C.3       1 UNK         0.1007 
      3 N3         -4.6208   -3.9836    3.8824 N.3       1 UNK        -0.7113 
      4 C4         -3.1787   -3.8779    3.5752 C.3       1 UNK         0.1007 
      5 C5         -2.7621   -2.4440    3.1291 C.3       1 UNK         0.0986 
      6 N6         -3.0984   -1.4466    4.1659 N.3       1 UNK        -0.7051 
      7 C7         -2.6985   -0.1016    3.7249 C.3       1 UNK         0.1131 
      8 C8         -2.5644    0.8800    4.9126 C.3       1 UNK        -0.1197 
      9 C9         -1.2073    0.8619    5.6765 C.3       1 UNK        -0.2881 
     10 S10        -0.5877   -0.8364    6.2034 S.3       1 UNK         1.0110 
     11 O11         0.1378   -0.7248    7.4736 O.2       1 UNK        -0.4915 
     12 O12         0.0059   -1.5309    5.0564 O.2       1 UNK        -0.4915 
     13 O13        -2.0356   -1.5380    6.5153 O.3       1 UNK        -0.5020 
     14 C14        -5.4525   -3.9529    2.6605 C.3       1 UNK         0.0871 
     15 C15        -6.9535   -4.2929    2.8407 C.3       1 UNK         0.1330 
     16 O16        -7.7142   -3.2248    3.3906 O.3       1 UNK        -0.6627 
     17 H17        -4.8551   -0.8148    5.1897 H         1 UNK         0.0691 
     18 H18        -5.1259   -1.2518    3.5259 H         1 UNK         0.0691 
     19 H19        -6.0043   -2.9819    5.1542 H         1 UNK         0.0706 
     20 H20        -4.4244   -3.1824    5.8198 H         1 UNK         0.0706 
     21 H21        -2.9041   -4.5941    2.7981 H         1 UNK         0.0706 
     22 H22        -2.5973   -4.1694    4.4526 H         1 UNK         0.0706 
     23 H23        -1.6844   -2.4397    2.9518 H         1 UNK         0.0691 
     24 H24        -3.2240   -2.1919    2.1718 H         1 UNK         0.0691 
     25 H25        -1.7173   -0.1656    3.2475 H         1 UNK         0.0626 
     26 H26        -3.3711    0.2954    2.9601 H         1 UNK         0.0626 
     27 H27        -2.7412    1.8930    4.5470 H         1 UNK         0.0883 
     28 H28        -3.3482    0.6954    5.6480 H         1 UNK         0.0883 
     29 H29        -1.2816    1.4333    6.5993 H         1 UNK         0.1467 
     30 H30        -0.4003    1.3021    5.0951 H         1 UNK         0.1467 
     31 H31        -2.4938   -1.5685    5.6287 H         1 UNK         0.3980 
     32 H32        -5.0687   -4.7671    2.0417 H         1 UNK         0.0752 
     33 H33        -5.3206   -3.0790    2.0199 H         1 UNK         0.0752 
     34 H34        -7.3783   -4.5388    1.8657 H         1 UNK         0.0513 
     35 H35        -7.0708   -5.1965    3.4420 H         1 UNK         0.0513 
     36 H36        -8.6356   -3.5182    3.4632 H         1 UNK         0.4242 
@<TRIPOS>BOND
     1    1    2 1    
     2    1    6 1    
     3    1   17 1    
     4    1   18 1    
     5    2    3 1    
     6    2   19 1    
     7    2   20 1    
     8    3    4 1    
     9    3   14 1    
    10    4    5 1    
    11    4   21 1    
    12    4   22 1    
    13    5    6 1    
    14    5   23 1    
    15    5   24 1    
    16    6    7 1    
    17    7    8 1    
    18    7   25 1    
    19    7   26 1    
    20    8    9 1    
    21    8   27 1    
    22    8   28 1    
    23    9   10 1    
    24    9   29 1    
    25    9   30 1    
    26   10   11 2    
    27   10   12 2    
    28   10   13 1    
    29   13   31 1    
    30   14   15 1    
    31   14   32 1    
    32   14   33 1    
    33   15   16 1    
    34   15   34 1    
    35   15   35 1    
    36   16   36 1    
@<TRIPOS>SUBSTRUCTURE
     1 UNK         1 GROUP             0       ****    0 ROOT    
@<TRIPOS>MOLECULE
EPPS
36   36    1
SMALL
USER_CHARGES


@<TRIPOS>ATOM
      1 C1         -4.3287   -0.5309    3.2272 C.3       1 UNK         0.0986 
      2 C2         -5.3442   -1.7147    3.1006 C.3       1 UNK         0.1007 
      3 N3         -4.7304   -3.0490    3.2727 N.3       1 UNK        -0.7113 
      4 C4         -3.5498   -3.1596    2.3932 C.3       1 UNK         0.1007 
      5 C5         -2.5420   -1.9711    2.5330 C.3       1 UNK         0.0986 
      6 N6         -2.9497   -0.9681    3.5363 N.3       1 UNK        -0.7051 
      7 C7         -1.9984    0.1477    3.6110 C.3       1 UNK         0.1131 
      8 C8         -2.0941    0.8830    4.9678 C.3       1 UNK        -0.1197 
      9 C9         -1.3214    0.2473    6.1615 C.3       1 UNK        -0.2881 
     10 S10        -1.6035   -1.5943    6.4461 S.3       1 UNK         1.0110 
     11 O11        -1.5244   -1.8843    7.8821 O.2       1 UNK        -0.4915 
     12 O12        -0.8245   -2.3753    5.4801 O.2       1 UNK        -0.4915 
     13 O13        -3.1807   -1.6806    6.0075 O.3       1 UNK        -0.5020 
     14 C14        -5.6628   -4.1695    3.0488 C.3       1 UNK         0.0871 
     15 C15        -6.7951   -4.2580    4.0971 C.3       1 UNK         0.1330 
     16 O16        -6.2321   -4.4206    5.3881 O.3       1 UNK        -0.6627 
     17 H17        -4.6925    0.1492    3.9984 H         1 UNK         0.0691 
     18 H18        -4.3381    0.0464    2.2995 H         1 UNK         0.0691 
     19 H19        -5.8470   -1.6535    2.1327 H         1 UNK         0.0706 
     20 H20        -6.1224   -1.5708    3.8514 H         1 UNK         0.0706 
     21 H21        -3.8639   -3.2392    1.3497 H         1 UNK         0.0706 
     22 H22        -3.0233   -4.0895    2.6178 H         1 UNK         0.0706 
     23 H23        -1.5640   -2.3752    2.8027 H         1 UNK         0.0691 
     24 H24        -2.4088   -1.4960    1.5581 H         1 UNK         0.0691 
     25 H25        -0.9844   -0.2515    3.5280 H         1 UNK         0.0626 
     26 H26        -2.1138    0.8409    2.7741 H         1 UNK         0.0626 
     27 H27        -1.7347    1.9044    4.8318 H         1 UNK         0.0883 
     28 H28        -3.1362    0.9817    5.2730 H         1 UNK         0.0883 
     29 H29        -1.6097    0.7229    7.0965 H         1 UNK         0.1467 
     30 H30        -0.2447    0.3672    6.0648 H         1 UNK         0.1467 
     31 H31        -3.1831   -1.4933    5.0257 H         1 UNK         0.3980 
     32 H32        -5.1747   -5.1426    2.9568 H         1 UNK         0.0752 
     33 H33        -6.1318   -4.0359    2.0710 H         1 UNK         0.0752 
     34 H34        -7.4371   -3.3766    4.0664 H         1 UNK         0.0513 
     35 H35        -7.4416   -5.1090    3.8767 H         1 UNK         0.0513 
     36 H36        -5.4974   -3.7850    5.4264 H         1 UNK         0.4242 
@<TRIPOS>BOND
     1    1    2 1    
     2    1    6 1    
     3    1   17 1    
     4    1   18 1    
     5    2    3 1    
     6    2   19 1    
     7    2   20 1    
     8    3    4 1    
     9    3   14 1    
    10    4    5 1    
    11    4   21 1    
    12    4   22 1    
    13    5    6 1    
    14    5   23 1    
    15    5   24 1    
    16    6    7 1    
    17    7    8 1    
    18    7   25 1    
    19    7   26 1    
    20    8    9 1    
    21    8   27 1    
    22    8   28 1    
    23    9   10 1    
    24    9   29 1    
    25    9   30 1    
    26   10   11 2    
    27   10   12 2    
    28   10   13 1    
    29   13   31 1    
    30   14   15 1    
    31   14   32 1    
    32   14   33 1    
    33   15   16 1    
    34   15   34 1    
    35   15   35 1    
    36   16   36 1    
@<TRIPOS>SUBSTRUCTURE
     1 UNK         1 GROUP             0       ****    0 ROOT    
@<TRIPOS>MOLECULE
EPPS
36   36    1
SMALL
USER_CHARGES


@<TRIPOS>ATOM
      1 C1         -3.9949   -1.5953    3.1717 C.3       1 UNK         0.0986 
      2 C2         -4.4815   -3.0605    2.9935 C.3       1 UNK         0.1007 
      3 N3         -5.6583   -3.3356    3.8458 N.3       1 UNK        -0.7113 
      4 C4         -5.2749   -3.0698    5.2463 C.3       1 UNK         0.1007 
      5 C5         -4.7927   -1.6036    5.4220 C.3       1 UNK         0.0986 
      6 N6         -3.6154   -1.3305    4.5751 N.3       1 UNK        -0.7051 
      7 C7         -3.1653    0.0541    4.7814 C.3       1 UNK         0.1131 
      8 C8         -1.8252    0.3637    4.0748 C.3       1 UNK        -0.1197 
      9 C9         -0.6424   -0.5963    4.3788 C.3       1 UNK        -0.2881 
     10 S10        -0.0245   -0.4979    6.1520 S.3       1 UNK         1.0110 
     11 O11         1.1120   -1.4097    6.3198 O.2       1 UNK        -0.4915 
     12 O12         0.0588    0.9025    6.5825 O.2       1 UNK        -0.4915 
     13 O13        -1.3095   -1.1809    6.9132 O.3       1 UNK        -0.5020 
     14 C14        -6.1423   -4.7244    3.7187 C.3       1 UNK         0.0871 
     15 C15        -6.7665   -5.0520    2.3427 C.3       1 UNK         0.1330 
     16 O16        -7.8861   -4.2128    2.1133 O.3       1 UNK        -0.6627 
     17 H17        -4.7695   -0.9016    2.8361 H         1 UNK         0.0691 
     18 H18        -3.1388   -1.4413    2.5135 H         1 UNK         0.0691 
     19 H19        -3.6644   -3.7513    3.2153 H         1 UNK         0.0706 
     20 H20        -4.7296   -3.2070    1.9416 H         1 UNK         0.0706 
     21 H21        -4.4938   -3.7580    5.5791 H         1 UNK         0.0706 
     22 H22        -6.1307   -3.2370    5.9038 H         1 UNK         0.0706 
     23 H23        -5.6105   -0.9153    5.1944 H         1 UNK         0.0691 
     24 H24        -4.5396   -1.4423    6.4719 H         1 UNK         0.0691 
     25 H25        -3.9312    0.7526    4.4345 H         1 UNK         0.0626 
     26 H26        -3.0475    0.2464    5.8498 H         1 UNK         0.0626 
     27 H27        -1.9919    0.4387    2.9994 H         1 UNK         0.0883 
     28 H28        -1.5320    1.3780    4.3519 H         1 UNK         0.0883 
     29 H29         0.2228   -0.3603    3.7636 H         1 UNK         0.1467 
     30 H30        -0.8997   -1.6374    4.1993 H         1 UNK         0.1467 
     31 H31        -1.3588   -2.1073    6.6103 H         1 UNK         0.3980 
     32 H32        -6.8300   -5.0314    4.5102 H         1 UNK         0.0752 
     33 H33        -5.2934   -5.3985    3.8581 H         1 UNK         0.0752 
     34 H34        -6.0386   -4.9497    1.5369 H         1 UNK         0.0513 
     35 H35        -7.0906   -6.0938    2.3215 H         1 UNK         0.0513 
     36 H36        -7.5949   -3.3201    2.3635 H         1 UNK         0.4242 
@<TRIPOS>BOND
     1    1    2 1    
     2    1    6 1    
     3    1   17 1    
     4    1   18 1    
     5    2    3 1    
     6    2   19 1    
     7    2   20 1    
     8    3    4 1    
     9    3   14 1    
    10    4    5 1    
    11    4   21 1    
    12    4   22 1    
    13    5    6 1    
    14    5   23 1    
    15    5   24 1    
    16    6    7 1    
    17    7    8 1    
    18    7   25 1    
    19    7   26 1    
    20    8    9 1    
    21    8   27 1    
    22    8   28 1    
    23    9   10 1    
    24    9   29 1    
    25    9   30 1    
    26   10   11 2    
    27   10   12 2    
    28   10   13 1    
    29   13   31 1    
    30   14   15 1    
    31   14   32 1    
    32   14   33 1    
    33   15   16 1    
    34   15   34 1    
    35   15   35 1    
    36   16   36 1    
@<TRIPOS>SUBSTRUCTURE
     1 UNK         1 GROUP             0       ****    0 ROOT    
@<TRIPOS>MOLECULE
EPPS
36   36    1
SMALL
USER_CHARGES


@<TRIPOS>ATOM
      1 C1         -4.7818   -1.1869    4.4651 C.3       1 UNK         0.0986 
      2 C2         -5.5587   -2.5149    4.6842 C.3       1 UNK         0.1007 
      3 N3         -5.4794   -3.3794    3.4870 N.3       1 UNK        -0.7113 
      4 C4         -4.0530   -3.6378    3.2089 C.3       1 UNK         0.1007 
      5 C5         -3.2804   -2.3088    2.9861 C.3       1 UNK         0.0986 
      6 N6         -3.3551   -1.4485    4.1829 N.3       1 UNK        -0.7051 
      7 C7         -2.5938   -0.2114    3.9541 C.3       1 UNK         0.1131 
      8 C8         -2.4635    0.6594    5.2252 C.3       1 UNK        -0.1197 
      9 C9         -1.9042   -0.0427    6.4930 C.3       1 UNK        -0.2881 
     10 S10        -0.0980   -0.5441    6.3455 S.3       1 UNK         1.0110 
     11 O11         0.3386   -1.1568    7.6046 O.2       1 UNK        -0.4915 
     12 O12         0.6772    0.5329    5.7192 O.2       1 UNK        -0.4915 
     13 O13        -0.2534   -1.7545    5.2466 O.3       1 UNK        -0.5020 
     14 C14        -6.1913   -4.6608    3.6610 C.3       1 UNK         0.0871 
     15 C15        -7.7286   -4.5221    3.7492 C.3       1 UNK         0.1330 
     16 O16        -8.2260   -3.9442    2.5538 O.3       1 UNK        -0.6627 
     17 H17        -4.8838   -0.5830    5.3678 H         1 UNK         0.0691 
     18 H18        -5.2437   -0.6135    3.6577 H         1 UNK         0.0691 
     19 H19        -6.5968   -2.2648    4.9061 H         1 UNK         0.0706 
     20 H20        -5.1713   -3.0287    5.5675 H         1 UNK         0.0706 
     21 H21        -3.9550   -4.2532    2.3121 H         1 UNK         0.0706 
     22 H22        -3.5887   -4.2034    4.0207 H         1 UNK         0.0706 
     23 H23        -2.2376   -2.5437    2.7629 H         1 UNK         0.0691 
     24 H24        -3.6742   -1.7947    2.1057 H         1 UNK         0.0691 
     25 H25        -1.5917   -0.4579    3.5974 H         1 UNK         0.0626 
     26 H26        -3.0598    0.3732    3.1567 H         1 UNK         0.0626 
     27 H27        -1.8187    1.5058    4.9814 H         1 UNK         0.0883 
     28 H28        -3.4227    1.1322    5.4400 H         1 UNK         0.0883 
     29 H29        -2.4557   -0.9465    6.7409 H         1 UNK         0.1467 
     30 H30        -1.9461    0.6159    7.3573 H         1 UNK         0.1467 
     31 H31        -0.7741   -2.4605    5.6742 H         1 UNK         0.3980 
     32 H32        -5.8531   -5.1183    4.5942 H         1 UNK         0.0752 
     33 H33        -5.9387   -5.4166    2.9134 H         1 UNK         0.0752 
     34 H34        -8.1821   -5.5051    3.8865 H         1 UNK         0.0513 
     35 H35        -8.0294   -3.9312    4.6153 H         1 UNK         0.0513 
     36 H36        -7.6368   -3.1950    2.3648 H         1 UNK         0.4242 
@<TRIPOS>BOND
     1    1    2 1    
     2    1    6 1    
     3    1   17 1    
     4    1   18 1    
     5    2    3 1    
     6    2   19 1    
     7    2   20 1    
     8    3    4 1    
     9    3   14 1    
    10    4    5 1    
    11    4   21 1    
    12    4   22 1    
    13    5    6 1    
    14    5   23 1    
    15    5   24 1    
    16    6    7 1    
    17    7    8 1    
    18    7   25 1    
    19    7   26 1    
    20    8    9 1    
    21    8   27 1    
    22    8   28 1    
    23    9   10 1    
    24    9   29 1    
    25    9   30 1    
    26   10   11 2    
    27   10   12 2    
    28   10   13 1    
    29   13   31 1    
    30   14   15 1    
    31   14   32 1    
    32   14   33 1    
    33   15   16 1    
    34   15   34 1    
    35   15   35 1    
    36   16   36 1    
@<TRIPOS>SUBSTRUCTURE
     1 UNK         1 GROUP             0       ****    0 ROOT    
@<TRIPOS>MOLECULE
EPPS
36   36    1
SMALL
USER_CHARGES


@<TRIPOS>ATOM
      1 C1         -4.8017   -0.8339    4.5350 C.3       1 UNK         0.0986 
      2 C2         -5.7588   -1.9864    4.9465 C.3       1 UNK         0.1007 
      3 N3         -5.8575   -3.0013    3.8791 N.3       1 UNK        -0.7113 
      4 C4         -4.4962   -3.5145    3.6139 C.3       1 UNK         0.1007 
      5 C5         -3.5392   -2.3612    3.2032 C.3       1 UNK         0.0986 
      6 N6         -3.4414   -1.3475    4.2713 N.3       1 UNK        -0.7051 
      7 C7         -2.5111   -0.2841    3.8638 C.3       1 UNK         0.1131 
      8 C8         -2.2086    0.7204    4.9999 C.3       1 UNK        -0.1197 
      9 C9         -1.7191    0.1192    6.3460 C.3       1 UNK        -0.2881 
     10 S10        -0.0146   -0.6686    6.2472 S.3       1 UNK         1.0110 
     11 O11         0.8926    0.1828    5.4691 O.2       1 UNK        -0.4915 
     12 O12         0.3663   -1.1662    7.5732 O.2       1 UNK        -0.4915 
     13 O13        -0.3863   -1.9773    5.3274 O.3       1 UNK        -0.5020 
     14 C14        -6.7974   -4.0631    4.2893 C.3       1 UNK         0.0871 
     15 C15        -7.1401   -5.0711    3.1681 C.3       1 UNK         0.1330 
     16 O16        -7.7506   -4.3915    2.0838 O.3       1 UNK        -0.6627 
     17 H17        -4.7805   -0.1061    5.3472 H         1 UNK         0.0691 
     18 H18        -5.2012   -0.3105    3.6630 H         1 UNK         0.0691 
     19 H19        -6.7454   -1.5648    5.1499 H         1 UNK         0.0706 
     20 H20        -5.4172   -2.4322    5.8842 H         1 UNK         0.0706 
     21 H21        -4.5140   -4.2425    2.8020 H         1 UNK         0.0706 
     22 H22        -4.0948   -4.0366    4.4859 H         1 UNK         0.0706 
     23 H23        -2.5520   -2.7817    3.0006 H         1 UNK         0.0691 
     24 H24        -3.8799   -1.9140    2.2660 H         1 UNK         0.0691 
     25 H25        -2.9108    0.2520    2.9991 H         1 UNK         0.0626 
     26 H26        -1.5701   -0.7273    3.5319 H         1 UNK         0.0626 
     27 H27        -1.4524    1.4167    4.6328 H         1 UNK         0.0883 
     28 H28        -3.0780    1.3597    5.1589 H         1 UNK         0.0883 
     29 H29        -2.3914   -0.6473    6.7241 H         1 UNK         0.1467 
     30 H30        -1.6324    0.8874    7.1108 H         1 UNK         0.1467 
     31 H31        -0.9936   -2.5306    5.8541 H         1 UNK         0.3980 
     32 H32        -7.7223   -3.6916    4.7369 H         1 UNK         0.0752 
     33 H33        -6.3416   -4.6292    5.1056 H         1 UNK         0.0752 
     34 H34        -6.2558   -5.6138    2.8321 H         1 UNK         0.0513 
     35 H35        -7.8283   -5.8279    3.5483 H         1 UNK         0.0513 
     36 H36        -7.2051   -3.6014    1.9341 H         1 UNK         0.4242 
@<TRIPOS>BOND
     1    1    2 1    
     2    1    6 1    
     3    1   17 1    
     4    1   18 1    
     5    2    3 1    
     6    2   19 1    
     7    2   20 1    
     8    3    4 1    
     9    3   14 1    
    10    4    5 1    
    11    4   21 1    
    12    4   22 1    
    13    5    6 1    
    14    5   23 1    
    15    5   24 1    
    16    6    7 1    
    17    7    8 1    
    18    7   25 1    
    19    7   26 1    
    20    8    9 1    
    21    8   27 1    
    22    8   28 1    
    23    9   10 1    
    24    9   29 1    
    25    9   30 1    
    26   10   11 2    
    27   10   12 2    
    28   10   13 1    
    29   13   31 1    
    30   14   15 1    
    31   14   32 1    
    32   14   33 1    
    33   15   16 1    
    34   15   34 1    
    35   15   35 1    
    36   16   36 1    
@<TRIPOS>SUBSTRUCTURE
     1 UNK         1 GROUP             0       ****    0 ROOT    
@<TRIPOS>MOLECULE
EPPS
36   36    1
SMALL
USER_CHARGES


@<TRIPOS>ATOM
      1 C1         -4.7703   -1.6939    5.0471 C.3       1 UNK         0.0986 
      2 C2         -5.1778   -3.1517    4.6959 C.3       1 UNK         0.1007 
      3 N3         -5.3936   -3.3031    3.2408 N.3       1 UNK        -0.7113 
      4 C4         -4.1432   -2.9206    2.5556 C.3       1 UNK         0.1007 
      5 C5         -3.7368   -1.4630    2.9073 C.3       1 UNK         0.0986 
      6 N6         -3.5203   -1.3128    4.3613 N.3       1 UNK        -0.7051 
      7 C7         -3.1484    0.0605    4.7329 C.3       1 UNK         0.1131 
      8 C8         -1.7549    0.4720    4.2038 C.3       1 UNK        -0.1197 
      9 C9         -0.5735   -0.4758    4.5491 C.3       1 UNK        -0.2881 
     10 S10        -0.1466   -0.5168    6.3798 S.3       1 UNK         1.0110 
     11 O11        -0.1610    0.8419    6.9340 O.2       1 UNK        -0.4915 
     12 O12         0.9999   -1.4070    6.5896 O.2       1 UNK        -0.4915 
     13 O13        -1.4768   -1.3007    6.9393 O.3       1 UNK        -0.5020 
     14 C14        -5.7674   -4.6794    2.8599 C.3       1 UNK         0.0871 
     15 C15        -7.1682   -5.1119    3.3506 C.3       1 UNK         0.1330 
     16 O16        -8.1545   -4.2586    2.7943 O.3       1 UNK        -0.6627 
     17 H17        -4.6368   -1.6192    6.1284 H         1 UNK         0.0691 
     18 H18        -5.5839   -1.0106    4.7911 H         1 UNK         0.0691 
     19 H19        -6.0908   -3.3875    5.2439 H         1 UNK         0.0706 
     20 H20        -4.4153   -3.8468    5.0559 H         1 UNK         0.0706 
     21 H21        -4.2753   -2.9947    1.4741 H         1 UNK         0.0706 
     22 H22        -3.3285   -3.6026    2.8119 H         1 UNK         0.0706 
     23 H23        -2.8221   -1.2264    2.3622 H         1 UNK         0.0691 
     24 H24        -4.4981   -0.7662    2.5483 H         1 UNK         0.0691 
     25 H25        -3.9004    0.7642    4.3667 H         1 UNK         0.0626 
     26 H26        -3.1507    0.1598    5.8203 H         1 UNK         0.0626 
     27 H27        -1.8113    0.6385    3.1273 H         1 UNK         0.0883 
     28 H28        -1.5322    1.4656    4.5972 H         1 UNK         0.0883 
     29 H29         0.3408   -0.1608    4.0517 H         1 UNK         0.1467 
     30 H30        -0.7705   -1.5041    4.2554 H         1 UNK         0.1467 
     31 H31        -1.4591   -2.1980    6.5560 H         1 UNK         0.3980 
     32 H32        -5.0424   -5.3676    3.3020 H         1 UNK         0.0752 
     33 H33        -5.6789   -4.8861    1.7906 H         1 UNK         0.0752 
     34 H34        -7.3685   -6.1390    3.0410 H         1 UNK         0.0513 
     35 H35        -7.2300   -5.1113    4.4396 H         1 UNK         0.0513 
     36 H36        -7.8098   -3.3573    2.9080 H         1 UNK         0.4242 
@<TRIPOS>BOND
     1    1    2 1    
     2    1    6 1    
     3    1   17 1    
     4    1   18 1    
     5    2    3 1    
     6    2   19 1    
     7    2   20 1    
     8    3    4 1    
     9    3   14 1    
    10    4    5 1    
    11    4   21 1    
    12    4   22 1    
    13    5    6 1    
    14    5   23 1    
    15    5   24 1    
    16    6    7 1    
    17    7    8 1    
    18    7   25 1    
    19    7   26 1    
    20    8    9 1    
    21    8   27 1    
    22    8   28 1    
    23    9   10 1    
    24    9   29 1    
    25    9   30 1    
    26   10   11 2    
    27   10   12 2    
    28   10   13 1    
    29   13   31 1    
    30   14   15 1    
    31   14   32 1    
    32   14   33 1    
    33   15   16 1    
    34   15   34 1    
    35   15   35 1    
    36   16   36 1    
@<TRIPOS>SUBSTRUCTURE
     1 UNK         1 GROUP             0       ****    0 ROOT    
@<TRIPOS>MOLECULE
EPPS
36   36    1
SMALL
USER_CHARGES


@<TRIPOS>ATOM
      1 C1         -3.7504   -2.2572    3.0722 C.3       1 UNK         0.0986 
      2 C2         -4.6352   -3.4804    3.4396 C.3       1 UNK         0.1007 
      3 N3         -5.9812   -3.0468    3.8723 N.3       1 UNK        -0.7113 
      4 C4         -5.8155   -2.1449    5.0291 C.3       1 UNK         0.1007 
      5 C5         -4.9302   -0.9219    4.6626 C.3       1 UNK         0.0986 
      6 N6         -3.5860   -1.3558    4.2289 N.3       1 UNK        -0.7051 
      7 C7         -2.7227   -0.2241    3.8623 C.3       1 UNK         0.1131 
      8 C8         -2.3210    0.6427    5.0782 C.3       1 UNK        -0.1197 
      9 C9         -1.6214   -0.1057    6.2438 C.3       1 UNK        -0.2881 
     10 S10         0.0720   -0.7622    5.7691 S.3       1 UNK         1.0110 
     11 O11         0.9565    0.3560    5.4222 O.2       1 UNK        -0.4915 
     12 O12        -0.0563   -1.9322    4.8947 O.2       1 UNK        -0.4915 
     13 O13         0.5219   -1.3097    7.2510 O.3       1 UNK        -0.5020 
     14 C14        -6.8520   -4.1787    4.2461 C.3       1 UNK         0.0871 
     15 C15        -7.2656   -5.0768    3.0576 C.3       1 UNK         0.1330 
     16 O16        -7.9871   -4.3106    2.1074 O.3       1 UNK        -0.6627 
     17 H17        -4.1843   -1.7286    2.2197 H         1 UNK         0.0691 
     18 H18        -2.7738   -2.6192    2.7438 H         1 UNK         0.0691 
     19 H19        -4.1438   -4.0737    4.2147 H         1 UNK         0.0706 
     20 H20        -4.7048   -4.1221    2.5604 H         1 UNK         0.0706 
     21 H21        -5.3803   -2.6729    5.8815 H         1 UNK         0.0706 
     22 H22        -6.7912   -1.7827    5.3597 H         1 UNK         0.0706 
     23 H23        -5.4198   -0.3250    3.8894 H         1 UNK         0.0691 
     24 H24        -4.8563   -0.2831    5.5436 H         1 UNK         0.0691 
     25 H25        -1.8109   -0.6052    3.3975 H         1 UNK         0.0626 
     26 H26        -3.2100    0.3983    3.1073 H         1 UNK         0.0626 
     27 H27        -1.6542    1.4290    4.7193 H         1 UNK         0.0883 
     28 H28        -3.1889    1.1951    5.4402 H         1 UNK         0.0883 
     29 H29        -2.1963   -0.9631    6.5861 H         1 UNK         0.1467 
     30 H30        -1.4544    0.5469    7.0976 H         1 UNK         0.1467 
     31 H31         0.0897   -2.1777    7.3707 H         1 UNK         0.3980 
     32 H32        -7.7432   -3.8892    4.8081 H         1 UNK         0.0752 
     33 H33        -6.3105   -4.8094    4.9557 H         1 UNK         0.0752 
     34 H34        -6.4004   -5.5502    2.5918 H         1 UNK         0.0513 
     35 H35        -7.8974   -5.8928    3.4123 H         1 UNK         0.0513 
     36 H36        -7.4781   -3.4902    1.9973 H         1 UNK         0.4242 
@<TRIPOS>BOND
     1    1    2 1    
     2    1    6 1    
     3    1   17 1    
     4    1   18 1    
     5    2    3 1    
     6    2   19 1    
     7    2   20 1    
     8    3    4 1    
     9    3   14 1    
    10    4    5 1    
    11    4   21 1    
    12    4   22 1    
    13    5    6 1    
    14    5   23 1    
    15    5   24 1    
    16    6    7 1    
    17    7    8 1    
    18    7   25 1    
    19    7   26 1    
    20    8    9 1    
    21    8   27 1    
    22    8   28 1    
    23    9   10 1    
    24    9   29 1    
    25    9   30 1    
    26   10   11 2    
    27   10   12 2    
    28   10   13 1    
    29   13   31 1    
    30   14   15 1    
    31   14   32 1    
    32   14   33 1    
    33   15   16 1    
    34   15   34 1    
    35   15   35 1    
    36   16   36 1    
@<TRIPOS>SUBSTRUCTURE
     1 UNK         1 GROUP             0       ****    0 ROOT    
@<TRIPOS>MOLECULE
EPPS
36   36    1
SMALL
USER_CHARGES


@<TRIPOS>ATOM
      1 C1         -4.4828   -0.3690    4.0673 C.3       1 UNK         0.0986 
      2 C2         -5.6381   -1.4004    3.8406 C.3       1 UNK         0.1007 
      3 N3         -5.2282   -2.7131    3.2994 N.3       1 UNK        -0.7113 
      4 C4         -4.3310   -2.5151    2.1428 C.3       1 UNK         0.1007 
      5 C5         -3.2285   -1.4175    2.3040 C.3       1 UNK         0.0986 
      6 N6         -3.1369   -0.8267    3.6543 N.3       1 UNK        -0.7051 
      7 C7         -2.1681    0.2826    3.6515 C.3       1 UNK         0.1131 
      8 C8         -1.7683    0.7791    5.0616 C.3       1 UNK        -0.1197 
      9 C9         -0.7745   -0.1182    5.8491 C.3       1 UNK        -0.2881 
     10 S10        -1.5001   -1.7501    6.4193 S.3       1 UNK         1.0110 
     11 O11        -2.8555   -1.5494    6.9416 O.2       1 UNK        -0.4915 
     12 O12        -0.4966   -2.4970    7.1854 O.2       1 UNK        -0.4915 
     13 O13        -1.6258   -2.4603    4.9487 O.3       1 UNK        -0.5020 
     14 C14        -4.6568   -3.6209    4.3138 C.3       1 UNK         0.0871 
     15 C15        -5.7171   -4.2359    5.2540 C.3       1 UNK         0.1330 
     16 O16        -6.6283   -5.0195    4.5018 O.3       1 UNK        -0.6627 
     17 H17        -4.4678   -0.1236    5.1300 H         1 UNK         0.0691 
     18 H18        -4.7401    0.5608    3.5541 H         1 UNK         0.0691 
     19 H19        -6.3615   -0.9631    3.1496 H         1 UNK         0.0706 
     20 H20        -6.1913   -1.5232    4.7724 H         1 UNK         0.0706 
     21 H21        -4.9489   -2.2600    1.2797 H         1 UNK         0.0706 
     22 H22        -3.8564   -3.4601    1.8700 H         1 UNK         0.0706 
     23 H23        -2.2646   -1.8577    2.0395 H         1 UNK         0.0691 
     24 H24        -3.4060   -0.6341    1.5629 H         1 UNK         0.0691 
     25 H25        -1.2538   -0.0658    3.1645 H         1 UNK         0.0626 
     26 H26        -2.5213    1.1186    3.0420 H         1 UNK         0.0626 
     27 H27        -1.2974    1.7555    4.9350 H         1 UNK         0.0883 
     28 H28        -2.6495    0.9707    5.6744 H         1 UNK         0.0883 
     29 H29        -0.4408    0.3733    6.7603 H         1 UNK         0.1467 
     30 H30         0.1104   -0.3682    5.2679 H         1 UNK         0.1467 
     31 H31        -2.2491   -1.8776    4.4283 H         1 UNK         0.3980 
     32 H32        -3.9807   -3.0473    4.9457 H         1 UNK         0.0752 
     33 H33        -4.0134   -4.4085    3.9153 H         1 UNK         0.0752 
     34 H34        -5.2300   -4.8680    5.9984 H         1 UNK         0.0513 
     35 H35        -6.2489   -3.4673    5.8160 H         1 UNK         0.0513 
     36 H36        -6.8767   -4.4673    3.7418 H         1 UNK         0.4242 
@<TRIPOS>BOND
     1    1    2 1    
     2    1    6 1    
     3    1   17 1    
     4    1   18 1    
     5    2    3 1    
     6    2   19 1    
     7    2   20 1    
     8    3    4 1    
     9    3   14 1    
    10    4    5 1    
    11    4   21 1    
    12    4   22 1    
    13    5    6 1    
    14    5   23 1    
    15    5   24 1    
    16    6    7 1    
    17    7    8 1    
    18    7   25 1    
    19    7   26 1    
    20    8    9 1    
    21    8   27 1    
    22    8   28 1    
    23    9   10 1    
    24    9   29 1    
    25    9   30 1    
    26   10   11 2    
    27   10   12 2    
    28   10   13 1    
    29   13   31 1    
    30   14   15 1    
    31   14   32 1    
    32   14   33 1    
    33   15   16 1    
    34   15   34 1    
    35   15   35 1    
    36   16   36 1    
@<TRIPOS>SUBSTRUCTURE
     1 UNK         1 GROUP             0       ****    0 ROOT    
@<TRIPOS>MOLECULE
EPPS
36   36    1
SMALL
USER_CHARGES


@<TRIPOS>ATOM
      1 C1         -5.3872   -1.1883    4.0401 C.3       1 UNK         0.0986 
      2 C2         -6.2628   -2.4261    4.3801 C.3       1 UNK         0.1007 
      3 N3         -5.8696   -3.5913    3.5590 N.3       1 UNK        -0.7113 
      4 C4         -4.4418   -3.8643    3.8161 C.3       1 UNK         0.1007 
      5 C5         -3.5659   -2.6265    3.4775 C.3       1 UNK         0.0986 
      6 N6         -3.9598   -1.4618    4.2972 N.3       1 UNK        -0.7051 
      7 C7         -3.1603   -0.2660    3.9929 C.3       1 UNK         0.1131 
      8 C8         -1.6839   -0.3978    4.4267 C.3       1 UNK        -0.1197 
      9 C9         -1.4828   -0.6902    5.9353 C.3       1 UNK        -0.2881 
     10 S10         0.3322   -0.8080    6.3924 S.3       1 UNK         1.0110 
     11 O11         1.0318   -1.6877    5.4489 O.2       1 UNK        -0.4915 
     12 O12         0.4647   -0.9856    7.8422 O.2       1 UNK        -0.4915 
     13 O13         0.7612    0.7402    6.0473 O.3       1 UNK        -0.5020 
     14 C14        -6.6676   -4.7961    3.8601 C.3       1 UNK         0.0871 
     15 C15        -8.1492   -4.6960    3.4297 C.3       1 UNK         0.1330 
     16 O16        -8.2281   -4.5014    2.0274 O.3       1 UNK        -0.6627 
     17 H17        -5.7196   -0.3473    4.6521 H         1 UNK         0.0691 
     18 H18        -5.5505   -0.8939    3.0003 H         1 UNK         0.0691 
     19 H19        -7.3049   -2.1626    4.1953 H         1 UNK         0.0706 
     20 H20        -6.1875   -2.6517    5.4468 H         1 UNK         0.0706 
     21 H21        -4.1090   -4.7052    3.2039 H         1 UNK         0.0706 
     22 H22        -4.2778   -4.1589    4.8558 H         1 UNK         0.0706 
     23 H23        -2.5246   -2.8892    3.6678 H         1 UNK         0.0691 
     24 H24        -3.6364   -2.3994    2.4110 H         1 UNK         0.0691 
     25 H25        -3.2174   -0.0242    2.9284 H         1 UNK         0.0626 
     26 H26        -3.5875    0.5874    4.5252 H         1 UNK         0.0626 
     27 H27        -1.1689   -1.1306    3.8038 H         1 UNK         0.0883 
     28 H28        -1.1894    0.5444    4.1831 H         1 UNK         0.0883 
     29 H29        -1.9216   -1.6425    6.2245 H         1 UNK         0.1467 
     30 H30        -1.9084    0.0851    6.5676 H         1 UNK         0.1467 
     31 H31         0.4787    1.2844    6.8076 H         1 UNK         0.3980 
     32 H32        -6.6544   -4.9561    4.9412 H         1 UNK         0.0752 
     33 H33        -6.2398   -5.7233    3.4712 H         1 UNK         0.0752 
     34 H34        -8.6743   -5.6157    3.6928 H         1 UNK         0.0513 
     35 H35        -8.6676   -3.8950    3.9582 H         1 UNK         0.0513 
     36 H36        -7.5722   -3.8137    1.8248 H         1 UNK         0.4242 
@<TRIPOS>BOND
     1    1    2 1    
     2    1    6 1    
     3    1   17 1    
     4    1   18 1    
     5    2    3 1    
     6    2   19 1    
     7    2   20 1    
     8    3    4 1    
     9    3   14 1    
    10    4    5 1    
    11    4   21 1    
    12    4   22 1    
    13    5    6 1    
    14    5   23 1    
    15    5   24 1    
    16    6    7 1    
    17    7    8 1    
    18    7   25 1    
    19    7   26 1    
    20    8    9 1    
    21    8   27 1    
    22    8   28 1    
    23    9   10 1    
    24    9   29 1    
    25    9   30 1    
    26   10   11 2    
    27   10   12 2    
    28   10   13 1    
    29   13   31 1    
    30   14   15 1    
    31   14   32 1    
    32   14   33 1    
    33   15   16 1    
    34   15   34 1    
    35   15   35 1    
    36   16   36 1    
@<TRIPOS>SUBSTRUCTURE
     1 UNK         1 GROUP             0       ****    0 ROOT    
@<TRIPOS>MOLECULE
EPPS
36   36    1
SMALL
USER_CHARGES


@<TRIPOS>ATOM
      1 C1         -5.3603   -0.7277    3.8233 C.3       1 UNK         0.0986 
      2 C2         -6.4689   -1.7045    4.3025 C.3       1 UNK         0.1007 
      3 N3         -6.2908   -3.0408    3.7012 N.3       1 UNK        -0.7113 
      4 C4         -4.9506   -3.5348    4.0841 C.3       1 UNK         0.1007 
      5 C5         -3.8391   -2.5561    3.6124 C.3       1 UNK         0.0986 
      6 N6         -4.0229   -1.2174    4.2105 N.3       1 UNK        -0.7051 
      7 C7         -2.9954   -0.2618    3.7720 C.3       1 UNK         0.1131 
      8 C8         -1.5892   -0.5914    4.3192 C.3       1 UNK        -0.1197 
      9 C9         -1.5017   -0.6540    5.8653 C.3       1 UNK        -0.2881 
     10 S10         0.2392   -1.0240    6.4564 S.3       1 UNK         1.0110 
     11 O11         0.7895   -2.1648    5.7152 O.2       1 UNK        -0.4915 
     12 O12         0.2833   -0.9736    7.9215 O.2       1 UNK        -0.4915 
     13 O13         0.9702    0.3374    5.8972 O.3       1 UNK        -0.5020 
     14 C14        -7.3771   -3.9347    4.1485 C.3       1 UNK         0.0871 
     15 C15        -7.4134   -5.2981    3.4204 C.3       1 UNK         0.1330 
     16 O16        -7.6093   -5.0939    2.0311 O.3       1 UNK        -0.6627 
     17 H17        -5.5410    0.2519    4.2706 H         1 UNK         0.0691 
     18 H18        -5.4314   -0.5887    2.7416 H         1 UNK         0.0691 
     19 H19        -7.4410   -1.2958    4.0187 H         1 UNK         0.0706 
     20 H20        -6.4665   -1.7591    5.3942 H         1 UNK         0.0706 
     21 H21        -4.7583   -4.5070    3.6286 H         1 UNK         0.0706 
     22 H22        -4.8792   -3.6828    5.1645 H         1 UNK         0.0706 
     23 H23        -2.8759   -2.9735    3.9080 H         1 UNK         0.0691 
     24 H24        -3.8287   -2.5011    2.5211 H         1 UNK         0.0691 
     25 H25        -2.9674   -0.1986    2.6811 H         1 UNK         0.0626 
     26 H26        -3.2655    0.7344    4.1306 H         1 UNK         0.0626 
     27 H27        -1.2062   -1.5031    3.8586 H         1 UNK         0.0883 
     28 H28        -0.9119    0.1859    3.9608 H         1 UNK         0.0883 
     29 H29        -2.1258   -1.4457    6.2737 H         1 UNK         0.1467 
     30 H30        -1.7922    0.2827    6.3346 H         1 UNK         0.1467 
     31 H31         0.7699    1.0458    6.5391 H         1 UNK         0.3980 
     32 H32        -8.3705   -3.4807    4.1161 H         1 UNK         0.0752 
     33 H33        -7.2373   -4.1396    5.2129 H         1 UNK         0.0752 
     34 H34        -6.5041   -5.8733    3.5995 H         1 UNK         0.0513 
     35 H35        -8.2320   -5.9048    3.8112 H         1 UNK         0.0513 
     36 H36        -6.9956   -4.3818    1.7854 H         1 UNK         0.4242 
@<TRIPOS>BOND
     1    1    2 1    
     2    1    6 1    
     3    1   17 1    
     4    1   18 1    
     5    2    3 1    
     6    2   19 1    
     7    2   20 1    
     8    3    4 1    
     9    3   14 1    
    10    4    5 1    
    11    4   21 1    
    12    4   22 1    
    13    5    6 1    
    14    5   23 1    
    15    5   24 1    
    16    6    7 1    
    17    7    8 1    
    18    7   25 1    
    19    7   26 1    
    20    8    9 1    
    21    8   27 1    
    22    8   28 1    
    23    9   10 1    
    24    9   29 1    
    25    9   30 1    
    26   10   11 2    
    27   10   12 2    
    28   10   13 1    
    29   13   31 1    
    30   14   15 1    
    31   14   32 1    
    32   14   33 1    
    33   15   16 1    
    34   15   34 1    
    35   15   35 1    
    36   16   36 1    
@<TRIPOS>SUBSTRUCTURE
     1 UNK         1 GROUP             0       ****    0 ROOT    
@<TRIPOS>MOLECULE
EPPS
36   36    1
SMALL
USER_CHARGES


@<TRIPOS>ATOM
      1 C1         -3.8230   -2.1521    3.6059 C.3       1 UNK         0.0986 
      2 C2         -4.8068   -3.2938    3.9858 C.3       1 UNK         0.1007 
      3 N3         -6.2095   -2.8812    3.7640 N.3       1 UNK        -0.7113 
      4 C4         -6.4591   -1.6733    4.5750 C.3       1 UNK         0.1007 
      5 C5         -5.4777   -0.5327    4.1893 C.3       1 UNK         0.0986 
      6 N6         -4.0778   -0.9423    4.4152 N.3       1 UNK        -0.7051 
      7 C7         -3.1732    0.1638    4.0690 C.3       1 UNK         0.1131 
      8 C8         -1.7070   -0.1043    4.4733 C.3       1 UNK        -0.1197 
      9 C9         -1.4989   -0.3806    5.9839 C.3       1 UNK        -0.2881 
     10 S10         0.3067   -0.6653    6.4031 S.3       1 UNK         1.0110 
     11 O11         1.1335    0.3880    5.8027 O.2       1 UNK        -0.4915 
     12 O12         0.4336   -1.0194    7.8207 O.2       1 UNK        -0.4915 
     13 O13         0.5347   -2.0400    5.5324 O.3       1 UNK        -0.5020 
     14 C14        -7.1781   -3.9334    4.1299 C.3       1 UNK         0.0871 
     15 C15        -7.1469   -5.1706    3.2032 C.3       1 UNK         0.1330 
     16 O16        -7.4576   -4.7821    1.8755 O.3       1 UNK        -0.6627 
     17 H17        -3.8990   -1.9339    2.5379 H         1 UNK         0.0691 
     18 H18        -2.8076   -2.5129    3.7741 H         1 UNK         0.0691 
     19 H19        -4.6437   -3.5928    5.0242 H         1 UNK         0.0706 
     20 H20        -4.5643   -4.1642    3.3748 H         1 UNK         0.0706 
     21 H21        -6.3726   -1.8897    5.6429 H         1 UNK         0.0706 
     22 H22        -7.4812   -1.3234    4.4155 H         1 UNK         0.0706 
     23 H23        -5.6402   -0.2406    3.1487 H         1 UNK         0.0691 
     24 H24        -5.7096    0.3464    4.7940 H         1 UNK         0.0691 
     25 H25        -3.2318    0.3908    3.0015 H         1 UNK         0.0626 
     26 H26        -3.5021    1.0645    4.5931 H         1 UNK         0.0626 
     27 H27        -1.2803   -0.8961    3.8561 H         1 UNK         0.0883 
     28 H28        -1.1292    0.7802    4.1982 H         1 UNK         0.0883 
     29 H29        -2.0348   -1.2663    6.3170 H         1 UNK         0.1467 
     30 H30        -1.8147    0.4584    6.5994 H         1 UNK         0.1467 
     31 H31         0.1724   -2.7722    6.0674 H         1 UNK         0.3980 
     32 H32        -8.2071   -3.5787    4.2253 H         1 UNK         0.0752 
     33 H33        -6.9448   -4.2793    5.1401 H         1 UNK         0.0752 
     34 H34        -6.1806   -5.6752    3.2395 H         1 UNK         0.0513 
     35 H35        -7.8798   -5.9050    3.5412 H         1 UNK         0.0513 
     36 H36        -6.9278   -3.9848    1.7089 H         1 UNK         0.4242 
@<TRIPOS>BOND
     1    1    2 1    
     2    1    6 1    
     3    1   17 1    
     4    1   18 1    
     5    2    3 1    
     6    2   19 1    
     7    2   20 1    
     8    3    4 1    
     9    3   14 1    
    10    4    5 1    
    11    4   21 1    
    12    4   22 1    
    13    5    6 1    
    14    5   23 1    
    15    5   24 1    
    16    6    7 1    
    17    7    8 1    
    18    7   25 1    
    19    7   26 1    
    20    8    9 1    
    21    8   27 1    
    22    8   28 1    
    23    9   10 1    
    24    9   29 1    
    25    9   30 1    
    26   10   11 2    
    27   10   12 2    
    28   10   13 1    
    29   13   31 1    
    30   14   15 1    
    31   14   32 1    
    32   14   33 1    
    33   15   16 1    
    34   15   34 1    
    35   15   35 1    
    36   16   36 1    
@<TRIPOS>SUBSTRUCTURE
     1 UNK         1 GROUP             0       ****    0 ROOT    
@<TRIPOS>MOLECULE
EPPS
36   36    1
SMALL
USER_CHARGES


@<TRIPOS>ATOM
      1 C1         -4.4871   -1.7582    4.5421 C.3       1 UNK         0.0986 
      2 C2         -4.9690   -3.2102    4.2677 C.3       1 UNK         0.1007 
      3 N3         -5.5846   -3.3208    2.9277 N.3       1 UNK        -0.7113 
      4 C4         -4.5802   -2.8971    1.9324 C.3       1 UNK         0.1007 
      5 C5         -4.1056   -1.4437    2.2065 C.3       1 UNK         0.0986 
      6 N6         -3.4858   -1.3343    3.5415 N.3       1 UNK        -0.7051 
      7 C7         -3.0206    0.0426    3.7637 C.3       1 UNK         0.1131 
      8 C8         -2.1702    0.1945    5.0439 C.3       1 UNK        -0.1197 
      9 C9         -0.9065   -0.7016    5.0836 C.3       1 UNK        -0.2881 
     10 S10         0.0882   -0.4432    6.6523 S.3       1 UNK         1.0110 
     11 O11         0.2848    0.9913    6.8914 O.2       1 UNK        -0.4915 
     12 O12         1.2141   -1.3826    6.6824 O.2       1 UNK        -0.4915 
     13 O13        -1.0293   -0.9831    7.7291 O.3       1 UNK        -0.5020 
     14 C14        -6.0398   -4.6911    2.6207 C.3       1 UNK         0.0871 
     15 C15        -7.2417   -5.1628    3.4711 C.3       1 UNK         0.1330 
     16 O16        -8.3520   -4.3107    3.2445 O.3       1 UNK        -0.6627 
     17 H17        -4.0565   -1.7301    5.5439 H         1 UNK         0.0691 
     18 H18        -5.3419   -1.0776    4.5557 H         1 UNK         0.0691 
     19 H19        -5.6896   -3.4775    5.0416 H         1 UNK         0.0706 
     20 H20        -4.1319   -3.9045    4.3751 H         1 UNK         0.0706 
     21 H21        -5.0097   -2.9408    0.9293 H         1 UNK         0.0706 
     22 H22        -3.7203   -3.5717    1.9271 H         1 UNK         0.0706 
     23 H23        -3.3834   -1.1616    1.4375 H         1 UNK         0.0691 
     24 H24        -4.9471   -0.7538    2.1045 H         1 UNK         0.0691 
     25 H25        -2.4006    0.3454    2.9164 H         1 UNK         0.0626 
     26 H26        -3.8649    0.7363    3.7899 H         1 UNK         0.0626 
     27 H27        -1.8585    1.2391    5.1029 H         1 UNK         0.0883 
     28 H28        -2.7895    0.0570    5.9314 H         1 UNK         0.0883 
     29 H29        -0.2254   -0.4827    4.2646 H         1 UNK         0.1467 
     30 H30        -1.1523   -1.7603    5.0467 H         1 UNK         0.1467 
     31 H31        -0.9799   -1.9583    7.7169 H         1 UNK         0.3980 
     32 H32        -5.2140   -5.3798    2.8168 H         1 UNK         0.0752 
     33 H33        -6.2549   -4.8633    1.5634 H         1 UNK         0.0752 
     34 H34        -7.5126   -6.1834    3.1955 H         1 UNK         0.0513 
     35 H35        -6.9939   -5.1964    4.5327 H         1 UNK         0.0513 
     36 H36        -7.9973   -3.4071    3.2877 H         1 UNK         0.4242 
@<TRIPOS>BOND
     1    1    2 1    
     2    1    6 1    
     3    1   17 1    
     4    1   18 1    
     5    2    3 1    
     6    2   19 1    
     7    2   20 1    
     8    3    4 1    
     9    3   14 1    
    10    4    5 1    
    11    4   21 1    
    12    4   22 1    
    13    5    6 1    
    14    5   23 1    
    15    5   24 1    
    16    6    7 1    
    17    7    8 1    
    18    7   25 1    
    19    7   26 1    
    20    8    9 1    
    21    8   27 1    
    22    8   28 1    
    23    9   10 1    
    24    9   29 1    
    25    9   30 1    
    26   10   11 2    
    27   10   12 2    
    28   10   13 1    
    29   13   31 1    
    30   14   15 1    
    31   14   32 1    
    32   14   33 1    
    33   15   16 1    
    34   15   34 1    
    35   15   35 1    
    36   16   36 1    
@<TRIPOS>SUBSTRUCTURE
     1 UNK         1 GROUP             0       ****    0 ROOT    
@<TRIPOS>MOLECULE
EPPS
36   36    1
SMALL
USER_CHARGES


@<TRIPOS>ATOM
      1 C1         -4.9623   -1.6801    5.0312 C.3       1 UNK         0.0986 
      2 C2         -5.4731   -3.1168    4.7327 C.3       1 UNK         0.1007 
      3 N3         -5.7099   -3.3022    3.2848 N.3       1 UNK        -0.7113 
      4 C4         -4.4404   -3.0334    2.5811 C.3       1 UNK         0.1007 
      5 C5         -3.9282   -1.5972    2.8797 C.3       1 UNK         0.0986 
      6 N6         -3.6937   -1.4117    4.3267 N.3       1 UNK        -0.7051 
      7 C7         -3.2187   -0.0588    4.6498 C.3       1 UNK         0.1131 
      8 C8         -1.7897    0.2175    4.1274 C.3       1 UNK        -0.1197 
      9 C9         -0.6904   -0.7718    4.5978 C.3       1 UNK        -0.2881 
     10 S10        -0.3492   -0.6528    6.4403 S.3       1 UNK         1.0110 
     11 O11        -1.4471   -1.2534    7.2056 O.2       1 UNK        -0.4915 
     12 O12         0.1640    0.6825    6.7634 O.2       1 UNK        -0.4915 
     13 O13         0.9219   -1.6918    6.5002 O.3       1 UNK        -0.5020 
     14 C14        -6.1824   -4.6610    2.9539 C.3       1 UNK         0.0871 
     15 C15        -7.6058   -4.9777    3.4680 C.3       1 UNK         0.1330 
     16 O16        -8.5354   -4.0772    2.8890 O.3       1 UNK        -0.6627 
     17 H17        -4.8155   -1.5790    6.1086 H         1 UNK         0.0691 
     18 H18        -5.7275   -0.9500    4.7559 H         1 UNK         0.0691 
     19 H19        -6.3961   -3.2693    5.2934 H         1 UNK         0.0706 
     20 H20        -4.7581   -3.8507    5.1127 H         1 UNK         0.0706 
     21 H21        -4.5849   -3.1351    1.5035 H         1 UNK         0.0706 
     22 H22        -3.6745   -3.7626    2.8572 H         1 UNK         0.0706 
     23 H23        -3.0021   -1.4474    2.3236 H         1 UNK         0.0691 
     24 H24        -4.6393   -0.8603    2.4984 H         1 UNK         0.0691 
     25 H25        -3.9092    0.6916    4.2563 H         1 UNK         0.0626 
     26 H26        -3.2177    0.0703    5.7342 H         1 UNK         0.0626 
     27 H27        -1.8029    0.2904    3.0393 H         1 UNK         0.0883 
     28 H28        -1.5102    1.2243    4.4436 H         1 UNK         0.0883 
     29 H29         0.2588   -0.5794    4.1039 H         1 UNK         0.1467 
     30 H30        -0.9598   -1.8089    4.4101 H         1 UNK         0.1467 
     31 H31         1.7068   -1.1919    6.2025 H         1 UNK         0.3980 
     32 H32        -5.5035   -5.3828    3.4150 H         1 UNK         0.0752 
     33 H33        -6.1178   -4.9095    1.8919 H         1 UNK         0.0752 
     34 H34        -7.8796   -5.9982    3.1950 H         1 UNK         0.0513 
     35 H35        -7.6580   -4.9361    4.5567 H         1 UNK         0.0513 
     36 H36        -8.1290   -3.1983    2.9710 H         1 UNK         0.4242 
@<TRIPOS>BOND
     1    1    2 1    
     2    1    6 1    
     3    1   17 1    
     4    1   18 1    
     5    2    3 1    
     6    2   19 1    
     7    2   20 1    
     8    3    4 1    
     9    3   14 1    
    10    4    5 1    
    11    4   21 1    
    12    4   22 1    
    13    5    6 1    
    14    5   23 1    
    15    5   24 1    
    16    6    7 1    
    17    7    8 1    
    18    7   25 1    
    19    7   26 1    
    20    8    9 1    
    21    8   27 1    
    22    8   28 1    
    23    9   10 1    
    24    9   29 1    
    25    9   30 1    
    26   10   11 2    
    27   10   12 2    
    28   10   13 1    
    29   13   31 1    
    30   14   15 1    
    31   14   32 1    
    32   14   33 1    
    33   15   16 1    
    34   15   34 1    
    35   15   35 1    
    36   16   36 1    
@<TRIPOS>SUBSTRUCTURE
     1 UNK         1 GROUP             0       ****    0 ROOT    
@<TRIPOS>MOLECULE
EPPS
36   36    1
SMALL
USER_CHARGES


@<TRIPOS>ATOM
      1 C1         -4.8432   -1.4197    4.2750 C.3       1 UNK         0.0986 
      2 C2         -5.7260   -2.6631    4.5755 C.3       1 UNK         0.1007 
      3 N3         -5.6753   -3.6322    3.4595 N.3       1 UNK        -0.7113 
      4 C4         -4.2646   -4.0183    3.2597 C.3       1 UNK         0.1007 
      5 C5         -3.3859   -2.7744    2.9539 C.3       1 UNK         0.0986 
      6 N6         -3.4328   -1.8089    4.0688 N.3       1 UNK        -0.7051 
      7 C7         -2.5704   -0.6568    3.7684 C.3       1 UNK         0.1131 
      8 C8         -2.4046    0.3042    4.9693 C.3       1 UNK        -0.1197 
      9 C9         -1.9028   -0.3295    6.2966 C.3       1 UNK        -0.2881 
     10 S10        -0.0878   -0.8207    6.2618 S.3       1 UNK         1.0110 
     11 O11         0.2092   -1.6476    5.0873 O.2       1 UNK        -0.4915 
     12 O12         0.3290   -1.2372    7.6049 O.2       1 UNK        -0.4915 
     13 O13         0.5506    0.6702    5.9969 O.3       1 UNK        -0.5020 
     14 C14        -6.4883   -4.8377    3.7139 C.3       1 UNK         0.0871 
     15 C15        -8.0126   -4.5793    3.7331 C.3       1 UNK         0.1330 
     16 O16        -8.4277   -4.0716    2.4760 O.3       1 UNK        -0.6627 
     17 H17        -4.9265   -0.7351    5.1201 H         1 UNK         0.0691 
     18 H18        -5.2347   -0.8853    3.4061 H         1 UNK         0.0691 
     19 H19        -6.7485   -2.3191    4.7356 H         1 UNK         0.0706 
     20 H20        -5.4074   -3.1252    5.5131 H         1 UNK         0.0706 
     21 H21        -4.1853   -4.7160    2.4234 H         1 UNK         0.0706 
     22 H22        -3.8710   -4.5425    4.1343 H         1 UNK         0.0706 
     23 H23        -2.3575   -3.1046    2.7924 H         1 UNK         0.0691 
     24 H24        -3.7104   -2.3124    2.0181 H         1 UNK         0.0691 
     25 H25        -1.5837   -1.0137    3.4687 H         1 UNK         0.0626 
     26 H26        -2.9628   -0.1063    2.9095 H         1 UNK         0.0626 
     27 H27        -1.7117    1.0924    4.6698 H         1 UNK         0.0883 
     28 H28        -3.3386    0.8436    5.1321 H         1 UNK         0.0883 
     29 H29        -2.4459   -1.2387    6.5445 H         1 UNK         0.1467 
     30 H30        -2.0072    0.3566    7.1335 H         1 UNK         0.1467 
     31 H31         0.5488    1.1324    6.8573 H         1 UNK         0.3980 
     32 H32        -6.2150   -5.2363    4.6942 H         1 UNK         0.0752 
     33 H33        -6.2713   -5.6719    3.0424 H         1 UNK         0.0752 
     34 H34        -8.5437   -5.5110    3.9351 H         1 UNK         0.0513 
     35 H35        -8.2938   -3.8958    4.5352 H         1 UNK         0.0513 
     36 H36        -7.7781   -3.3861    2.2472 H         1 UNK         0.4242 
@<TRIPOS>BOND
     1    1    2 1    
     2    1    6 1    
     3    1   17 1    
     4    1   18 1    
     5    2    3 1    
     6    2   19 1    
     7    2   20 1    
     8    3    4 1    
     9    3   14 1    
    10    4    5 1    
    11    4   21 1    
    12    4   22 1    
    13    5    6 1    
    14    5   23 1    
    15    5   24 1    
    16    6    7 1    
    17    7    8 1    
    18    7   25 1    
    19    7   26 1    
    20    8    9 1    
    21    8   27 1    
    22    8   28 1    
    23    9   10 1    
    24    9   29 1    
    25    9   30 1    
    26   10   11 2    
    27   10   12 2    
    28   10   13 1    
    29   13   31 1    
    30   14   15 1    
    31   14   32 1    
    32   14   33 1    
    33   15   16 1    
    34   15   34 1    
    35   15   35 1    
    36   16   36 1    
@<TRIPOS>SUBSTRUCTURE
     1 UNK         1 GROUP             0       ****    0 ROOT    
@<TRIPOS>MOLECULE
EPPS
36   36    1
SMALL
USER_CHARGES


@<TRIPOS>ATOM
      1 C1         -4.8776   -1.0371    4.3098 C.3       1 UNK         0.0986 
      2 C2         -5.9494   -2.0559    4.7866 C.3       1 UNK         0.1007 
      3 N3         -6.0829   -3.1731    3.8310 N.3       1 UNK        -0.7113 
      4 C4         -4.7596   -3.8205    3.7031 C.3       1 UNK         0.1007 
      5 C5         -3.6881   -2.8016    3.2254 C.3       1 UNK         0.0986 
      6 N6         -3.5557   -1.6846    4.1806 N.3       1 UNK        -0.7051 
      7 C7         -2.5168   -0.7526    3.7184 C.3       1 UNK         0.1131 
      8 C8         -2.1757    0.3390    4.7602 C.3       1 UNK        -0.1197 
      9 C9         -1.7689   -0.1592    6.1749 C.3       1 UNK        -0.2881 
     10 S10        -0.0625   -0.9471    6.2379 S.3       1 UNK         1.0110 
     11 O11         0.0752   -1.9827    5.2083 O.2       1 UNK        -0.4915 
     12 O12         0.2975   -1.2161    7.6340 O.2       1 UNK        -0.4915 
     13 O13         0.8128    0.3569    5.7544 O.3       1 UNK        -0.5020 
     14 C14        -7.1298   -4.1032    4.2980 C.3       1 UNK         0.0871 
     15 C15        -7.5031   -5.1998    3.2740 C.3       1 UNK         0.1330 
     16 O16        -7.9989   -4.5996    2.0890 O.3       1 UNK        -0.6627 
     17 H17        -4.8329   -0.2282    5.0401 H         1 UNK         0.0691 
     18 H18        -5.1878   -0.5831    3.3656 H         1 UNK         0.0691 
     19 H19        -6.9048   -1.5364    4.8857 H         1 UNK         0.0706 
     20 H20        -5.6939   -2.4196    5.7852 H         1 UNK         0.0706 
     21 H21        -4.8002   -4.6324    2.9760 H         1 UNK         0.0706 
     22 H22        -4.4475   -4.2705    4.6489 H         1 UNK         0.0706 
     23 H23        -2.7321   -3.3205    3.1280 H         1 UNK         0.0691 
     24 H24        -3.9424   -2.4376    2.2268 H         1 UNK         0.0691 
     25 H25        -1.6080   -1.3113    3.4885 H         1 UNK         0.0626 
     26 H26        -2.8235   -0.2816    2.7809 H         1 UNK         0.0626 
     27 H27        -1.3646    0.9446    4.3520 H         1 UNK         0.0883 
     28 H28        -3.0037    1.0459    4.8270 H         1 UNK         0.0883 
     29 H29        -2.4533   -0.9157    6.5524 H         1 UNK         0.1467 
     30 H30        -1.7454    0.6546    6.8955 H         1 UNK         0.1467 
     31 H31         0.9012    0.9393    6.5335 H         1 UNK         0.3980 
     32 H32        -8.0400   -3.6107    4.6485 H         1 UNK         0.0752 
     33 H33        -6.7649   -4.6088    5.1956 H         1 UNK         0.0752 
     34 H34        -6.6535   -5.8463    3.0504 H         1 UNK         0.0513 
     35 H35        -8.2717   -5.8514    3.6929 H         1 UNK         0.0513 
     36 H36        -7.3801   -3.8783    1.8863 H         1 UNK         0.4242 
@<TRIPOS>BOND
     1    1    2 1    
     2    1    6 1    
     3    1   17 1    
     4    1   18 1    
     5    2    3 1    
     6    2   19 1    
     7    2   20 1    
     8    3    4 1    
     9    3   14 1    
    10    4    5 1    
    11    4   21 1    
    12    4   22 1    
    13    5    6 1    
    14    5   23 1    
    15    5   24 1    
    16    6    7 1    
    17    7    8 1    
    18    7   25 1    
    19    7   26 1    
    20    8    9 1    
    21    8   27 1    
    22    8   28 1    
    23    9   10 1    
    24    9   29 1    
    25    9   30 1    
    26   10   11 2    
    27   10   12 2    
    28   10   13 1    
    29   13   31 1    
    30   14   15 1    
    31   14   32 1    
    32   14   33 1    
    33   15   16 1    
    34   15   34 1    
    35   15   35 1    
    36   16   36 1    
@<TRIPOS>SUBSTRUCTURE
     1 UNK         1 GROUP             0       ****    0 ROOT    
@<TRIPOS>MOLECULE
EPPS
36   36    1
SMALL
USER_CHARGES


@<TRIPOS>ATOM
      1 C1         -4.0850   -2.9595    5.8078 C.3       1 UNK         0.0986 
      2 C2         -5.1354   -3.7388    4.9474 C.3       1 UNK         0.1007 
      3 N3         -5.0318   -3.4975    3.4943 N.3       1 UNK        -0.7113 
      4 C4         -3.6311   -3.6517    3.0615 C.3       1 UNK         0.1007 
      5 C5         -2.5951   -2.8548    3.9228 C.3       1 UNK         0.0986 
      6 N6         -3.1509   -2.0874    5.0615 N.3       1 UNK        -0.7051 
      7 C7         -3.7906   -0.8240    4.6574 C.3       1 UNK         0.1131 
      8 C8         -2.7851    0.2718    4.2331 C.3       1 UNK        -0.1197 
      9 C9         -1.8633    0.8455    5.3453 C.3       1 UNK        -0.2881 
     10 S10        -0.4376   -0.2832    5.8126 S.3       1 UNK         1.0110 
     11 O11         0.4555    0.4082    6.7490 O.2       1 UNK        -0.4915 
     12 O12         0.0918   -0.9537    4.6204 O.2       1 UNK        -0.4915 
     13 O13        -1.2906   -1.3857    6.6740 O.3       1 UNK        -0.5020 
     14 C14        -5.9275   -4.3434    2.6825 C.3       1 UNK         0.0871 
     15 C15        -7.4320   -4.0761    2.9152 C.3       1 UNK         0.1330 
     16 O16        -7.7311   -2.7307    2.5839 O.3       1 UNK        -0.6627 
     17 H17        -3.4954   -3.6845    6.3727 H         1 UNK         0.0691 
     18 H18        -4.6087   -2.3795    6.5708 H         1 UNK         0.0691 
     19 H19        -6.1289   -3.4493    5.2928 H         1 UNK         0.0706 
     20 H20        -5.0459   -4.8070    5.1576 H         1 UNK         0.0706 
     21 H21        -3.5428   -3.3232    2.0239 H         1 UNK         0.0706 
     22 H22        -3.3530   -4.7083    3.0627 H         1 UNK         0.0706 
     23 H23        -1.8613   -3.5601    4.3181 H         1 UNK         0.0691 
     24 H24        -2.0170   -2.2057    3.2646 H         1 UNK         0.0691 
     25 H25        -4.5228   -0.9810    3.8629 H         1 UNK         0.0626 
     26 H26        -4.3571   -0.4301    5.5045 H         1 UNK         0.0626 
     27 H27        -2.2048   -0.0393    3.3639 H         1 UNK         0.0883 
     28 H28        -3.3858    1.1020    3.8574 H         1 UNK         0.0883 
     29 H29        -2.3994    1.0564    6.2679 H         1 UNK         0.1467 
     30 H30        -1.3897    1.7691    5.0199 H         1 UNK         0.1467 
     31 H31        -2.0061   -1.7092    6.0554 H         1 UNK         0.3980 
     32 H32        -5.7398   -5.3874    2.9448 H         1 UNK         0.0752 
     33 H33        -5.7139   -4.3178    1.6113 H         1 UNK         0.0752 
     34 H34        -8.0293   -4.7413    2.2895 H         1 UNK         0.0513 
     35 H35        -7.7213   -4.2922    3.9445 H         1 UNK         0.0513 
     36 H36        -7.0164   -2.2060    2.9813 H         1 UNK         0.4242 
@<TRIPOS>BOND
     1    1    2 1    
     2    1    6 1    
     3    1   17 1    
     4    1   18 1    
     5    2    3 1    
     6    2   19 1    
     7    2   20 1    
     8    3    4 1    
     9    3   14 1    
    10    4    5 1    
    11    4   21 1    
    12    4   22 1    
    13    5    6 1    
    14    5   23 1    
    15    5   24 1    
    16    6    7 1    
    17    7    8 1    
    18    7   25 1    
    19    7   26 1    
    20    8    9 1    
    21    8   27 1    
    22    8   28 1    
    23    9   10 1    
    24    9   29 1    
    25    9   30 1    
    26   10   11 2    
    27   10   12 2    
    28   10   13 1    
    29   13   31 1    
    30   14   15 1    
    31   14   32 1    
    32   14   33 1    
    33   15   16 1    
    34   15   34 1    
    35   15   35 1    
    36   16   36 1    
@<TRIPOS>SUBSTRUCTURE
     1 UNK         1 GROUP             0       ****    0 ROOT    
@<TRIPOS>MOLECULE
EPPS
36   36    1
SMALL
USER_CHARGES


@<TRIPOS>ATOM
      1 C1         -3.4285   -2.8406    5.6494 C.3       1 UNK         0.0986 
      2 C2         -4.7726   -3.6054    5.4071 C.3       1 UNK         0.1007 
      3 N3         -5.3230   -3.4568    4.0477 N.3       1 UNK        -0.7113 
      4 C4         -4.2728   -3.7418    3.0495 C.3       1 UNK         0.1007 
      5 C5         -2.9208   -2.9945    3.3036 C.3       1 UNK         0.0986 
      6 N6         -2.8809   -2.1053    4.4858 N.3       1 UNK        -0.7051 
      7 C7         -3.5647   -0.8266    4.2289 C.3       1 UNK         0.1131 
      8 C8         -3.2248    0.2759    5.2588 C.3       1 UNK        -0.1197 
      9 C9         -1.7653    0.8104    5.2569 C.3       1 UNK        -0.2881 
     10 S10        -0.5298   -0.3403    6.0781 S.3       1 UNK         1.0110 
     11 O11        -1.1324   -0.9781    7.2534 O.2       1 UNK        -0.4915 
     12 O12         0.7789    0.3173    6.1639 O.2       1 UNK        -0.4915 
     13 O13        -0.4359   -1.4630    4.8881 O.3       1 UNK        -0.5020 
     14 C14        -6.5413   -4.2727    3.8832 C.3       1 UNK         0.0871 
     15 C15        -7.3091   -4.0040    2.5690 C.3       1 UNK         0.1330 
     16 O16        -7.7187   -2.6476    2.5282 O.3       1 UNK        -0.6627 
     17 H17        -2.6765   -3.5615    5.9766 H         1 UNK         0.0691 
     18 H18        -3.5528   -2.1749    6.5039 H         1 UNK         0.0691 
     19 H19        -5.5092   -3.2462    6.1288 H         1 UNK         0.0706 
     20 H20        -4.6236   -4.6631    5.6371 H         1 UNK         0.0706 
     21 H21        -4.6287   -3.4578    2.0581 H         1 UNK         0.0706 
     22 H22        -4.0824   -4.8164    3.0018 H         1 UNK         0.0706 
     23 H23        -2.1298   -3.7395    3.4117 H         1 UNK         0.0691 
     24 H24        -2.6484   -2.4350    2.4060 H         1 UNK         0.0691 
     25 H25        -3.2593   -0.4555    3.2477 H         1 UNK         0.0626 
     26 H26        -4.6473   -0.9553    4.1694 H         1 UNK         0.0626 
     27 H27        -3.8737    1.1205    5.0205 H         1 UNK         0.0883 
     28 H28        -3.5361   -0.0119    6.2634 H         1 UNK         0.0883 
     29 H29        -1.6908    1.7405    5.8159 H         1 UNK         0.1467 
     30 H30        -1.3875    0.9967    4.2541 H         1 UNK         0.1467 
     31 H31        -1.3764   -1.7638    4.7330 H         1 UNK         0.3980 
     32 H32        -7.2322   -4.2160    4.7276 H         1 UNK         0.0752 
     33 H33        -6.2476   -5.3252    3.8773 H         1 UNK         0.0752 
     34 H34        -6.7035   -4.2494    1.6955 H         1 UNK         0.0513 
     35 H35        -8.1893   -4.6467    2.5142 H         1 UNK         0.0513 
     36 H36        -6.9442   -2.1392    2.8207 H         1 UNK         0.4242 
@<TRIPOS>BOND
     1    1    2 1    
     2    1    6 1    
     3    1   17 1    
     4    1   18 1    
     5    2    3 1    
     6    2   19 1    
     7    2   20 1    
     8    3    4 1    
     9    3   14 1    
    10    4    5 1    
    11    4   21 1    
    12    4   22 1    
    13    5    6 1    
    14    5   23 1    
    15    5   24 1    
    16    6    7 1    
    17    7    8 1    
    18    7   25 1    
    19    7   26 1    
    20    8    9 1    
    21    8   27 1    
    22    8   28 1    
    23    9   10 1    
    24    9   29 1    
    25    9   30 1    
    26   10   11 2    
    27   10   12 2    
    28   10   13 1    
    29   13   31 1    
    30   14   15 1    
    31   14   32 1    
    32   14   33 1    
    33   15   16 1    
    34   15   34 1    
    35   15   35 1    
    36   16   36 1    
@<TRIPOS>SUBSTRUCTURE
     1 UNK         1 GROUP             0       ****    0 ROOT    
@<TRIPOS>MOLECULE
EPPS
36   36    1
SMALL
USER_CHARGES


@<TRIPOS>ATOM
      1 C1         -4.2104   -0.4304    3.6156 C.3       1 UNK         0.0986 
      2 C2         -5.2746   -1.5440    3.8200 C.3       1 UNK         0.1007 
      3 N3         -5.0677   -2.6397    2.8522 N.3       1 UNK        -0.7113 
      4 C4         -3.6999   -3.1729    3.0108 C.3       1 UNK         0.1007 
      5 C5         -2.6504   -2.0447    2.8137 C.3       1 UNK         0.0986 
      6 N6         -2.8441   -0.9678    3.8071 N.3       1 UNK        -0.7051 
      7 C7         -1.8264    0.0783    3.6248 C.3       1 UNK         0.1131 
      8 C8         -1.6683    0.9547    4.8893 C.3       1 UNK        -0.1197 
      9 C9         -0.7264    0.4037    6.0005 C.3       1 UNK        -0.2881 
     10 S10        -1.0289   -1.3813    6.5184 S.3       1 UNK         1.0110 
     11 O11        -0.7327   -1.5380    7.9467 O.2       1 UNK        -0.4915 
     12 O12        -0.4537   -2.2950    5.5261 O.2       1 UNK        -0.4915 
     13 O13        -2.6576   -1.4141    6.3395 O.3       1 UNK        -0.5020 
     14 C14        -6.1158   -3.6784    2.9002 C.3       1 UNK         0.0871 
     15 C15        -6.2249   -4.4549    4.2388 C.3       1 UNK         0.1330 
     16 O16        -7.2634   -5.4192    4.1605 O.3       1 UNK        -0.6627 
     17 H17        -4.4154    0.3751    4.3220 H         1 UNK         0.0691 
     18 H18        -4.3236    0.0075    2.6205 H         1 UNK         0.0691 
     19 H19        -6.2703   -1.1147    3.6909 H         1 UNK         0.0706 
     20 H20        -5.2235   -1.9043    4.8494 H         1 UNK         0.0706 
     21 H21        -3.5186   -3.9620    2.2784 H         1 UNK         0.0706 
     22 H22        -3.5582   -3.6245    3.9948 H         1 UNK         0.0706 
     23 H23        -1.6526   -2.4758    2.9204 H         1 UNK         0.0691 
     24 H24        -2.7081   -1.6569    1.7934 H         1 UNK         0.0691 
     25 H25        -0.8605   -0.3992    3.4411 H         1 UNK         0.0626 
     26 H26        -2.0224    0.6922    2.7418 H         1 UNK         0.0626 
     27 H27        -1.3063    1.9387    4.5863 H         1 UNK         0.0883 
     28 H28        -2.6399    1.1320    5.3517 H         1 UNK         0.0883 
     29 H29        -0.8343    0.9842    6.9142 H         1 UNK         0.1467 
     30 H30         0.3220    0.4536    5.7152 H         1 UNK         0.1467 
     31 H31        -2.8028   -1.2788    5.3609 H         1 UNK         0.3980 
     32 H32        -7.0574   -3.1679    2.6873 H         1 UNK         0.0752 
     33 H33        -5.8887   -4.3739    2.0893 H         1 UNK         0.0752 
     34 H34        -6.4296   -3.7842    5.0744 H         1 UNK         0.0513 
     35 H35        -5.2931   -4.9743    4.4660 H         1 UNK         0.0513 
     36 H36        -8.1144   -4.9538    4.1802 H         1 UNK         0.4242 
@<TRIPOS>BOND
     1    1    2 1    
     2    1    6 1    
     3    1   17 1    
     4    1   18 1    
     5    2    3 1    
     6    2   19 1    
     7    2   20 1    
     8    3    4 1    
     9    3   14 1    
    10    4    5 1    
    11    4   21 1    
    12    4   22 1    
    13    5    6 1    
    14    5   23 1    
    15    5   24 1    
    16    6    7 1    
    17    7    8 1    
    18    7   25 1    
    19    7   26 1    
    20    8    9 1    
    21    8   27 1    
    22    8   28 1    
    23    9   10 1    
    24    9   29 1    
    25    9   30 1    
    26   10   11 2    
    27   10   12 2    
    28   10   13 1    
    29   13   31 1    
    30   14   15 1    
    31   14   32 1    
    32   14   33 1    
    33   15   16 1    
    34   15   34 1    
    35   15   35 1    
    36   16   36 1    
@<TRIPOS>SUBSTRUCTURE
     1 UNK         1 GROUP             0       ****    0 ROOT    
@<TRIPOS>MOLECULE
EPPS
36   36    1
SMALL
USER_CHARGES


@<TRIPOS>ATOM
      1 C1         -5.5619   -1.2455    4.5918 C.3       1 UNK         0.0986 
      2 C2         -6.1496   -2.6837    4.6152 C.3       1 UNK         0.1007 
      3 N3         -5.7662   -3.4295    3.3972 N.3       1 UNK        -0.7113 
      4 C4         -4.2919   -3.4590    3.3303 C.3       1 UNK         0.1007 
      5 C5         -3.7039   -2.0209    3.3085 C.3       1 UNK         0.0986 
      6 N6         -4.0878   -1.2760    4.5255 N.3       1 UNK        -0.7051 
      7 C7         -3.5599    0.0961    4.5327 C.3       1 UNK         0.1131 
      8 C8         -2.0231    0.1527    4.6754 C.3       1 UNK        -0.1197 
      9 C9         -1.4722   -0.5341    5.9491 C.3       1 UNK        -0.2881 
     10 S10         0.3925   -0.3899    6.0530 S.3       1 UNK         1.0110 
     11 O11         0.7710    1.0123    6.2619 O.2       1 UNK        -0.4915 
     12 O12         1.0136   -1.2007    5.0004 O.2       1 UNK        -0.4915 
     13 O13         0.6037   -1.1830    7.4760 O.3       1 UNK        -0.5020 
     14 C14        -6.2913   -4.8091    3.3846 C.3       1 UNK         0.0871 
     15 C15        -7.8282   -4.8990    3.2429 C.3       1 UNK         0.1330 
     16 O16        -8.2319   -4.3044    2.0206 O.3       1 UNK        -0.6627 
     17 H17        -5.8817   -0.7235    5.4962 H         1 UNK         0.0691 
     18 H18        -5.9824   -0.6875    3.7514 H         1 UNK         0.0691 
     19 H19        -7.2348   -2.6030    4.6880 H         1 UNK         0.0706 
     20 H20        -5.8191   -3.2047    5.5172 H         1 UNK         0.0706 
     21 H21        -3.9721   -3.9805    2.4257 H         1 UNK         0.0706 
     22 H22        -3.8703   -4.0170    4.1703 H         1 UNK         0.0706 
     23 H23        -2.6184   -2.1023    3.2403 H         1 UNK         0.0691 
     24 H24        -4.0309   -1.4975    2.4067 H         1 UNK         0.0691 
     25 H25        -3.8727    0.6348    3.6345 H         1 UNK         0.0626 
     26 H26        -3.9916    0.6347    5.3798 H         1 UNK         0.0626 
     27 H27        -1.5420   -0.2295    3.7739 H         1 UNK         0.0883 
     28 H28        -1.7381    1.2064    4.6974 H         1 UNK         0.0883 
     29 H29        -1.6993   -1.5974    5.9713 H         1 UNK         0.1467 
     30 H30        -1.8585   -0.0851    6.8612 H         1 UNK         0.1467 
     31 H31         0.5702   -2.1377    7.2715 H         1 UNK         0.3980 
     32 H32        -6.0248   -5.2870    4.3307 H         1 UNK         0.0752 
     33 H33        -5.8209   -5.4586    2.6425 H         1 UNK         0.0752 
     34 H34        -8.1403   -5.9447    3.2515 H         1 UNK         0.0513 
     35 H35        -8.3374   -4.4289    4.0852 H         1 UNK         0.0513 
     36 H36        -7.7456   -3.4648    1.9688 H         1 UNK         0.4242 
@<TRIPOS>BOND
     1    1    2 1    
     2    1    6 1    
     3    1   17 1    
     4    1   18 1    
     5    2    3 1    
     6    2   19 1    
     7    2   20 1    
     8    3    4 1    
     9    3   14 1    
    10    4    5 1    
    11    4   21 1    
    12    4   22 1    
    13    5    6 1    
    14    5   23 1    
    15    5   24 1    
    16    6    7 1    
    17    7    8 1    
    18    7   25 1    
    19    7   26 1    
    20    8    9 1    
    21    8   27 1    
    22    8   28 1    
    23    9   10 1    
    24    9   29 1    
    25    9   30 1    
    26   10   11 2    
    27   10   12 2    
    28   10   13 1    
    29   13   31 1    
    30   14   15 1    
    31   14   32 1    
    32   14   33 1    
    33   15   16 1    
    34   15   34 1    
    35   15   35 1    
    36   16   36 1    
@<TRIPOS>SUBSTRUCTURE
     1 UNK         1 GROUP             0       ****    0 ROOT    
@<TRIPOS>MOLECULE
EPPS
36   36    1
SMALL
USER_CHARGES


@<TRIPOS>ATOM
      1 C1         -4.3712   -1.8038    2.5804 C.3       1 UNK         0.0986 
      2 C2         -4.9998   -3.2247    2.5939 C.3       1 UNK         0.1007 
      3 N3         -5.9998   -3.3483    3.6762 N.3       1 UNK        -0.7113 
      4 C4         -5.3215   -3.0553    4.9542 C.3       1 UNK         0.1007 
      5 C5         -4.6915   -1.6350    4.9405 C.3       1 UNK         0.0986 
      6 N6         -3.6930   -1.5119    3.8583 N.3       1 UNK        -0.7051 
      7 C7         -3.0844   -0.1746    3.8061 C.3       1 UNK         0.1131 
      8 C8         -2.1828    0.1282    5.0231 C.3       1 UNK        -0.1197 
      9 C9         -1.0230   -0.8771    5.2278 C.3       1 UNK        -0.2881 
     10 S10         0.0345   -0.4117    6.7022 S.3       1 UNK         1.0110 
     11 O11        -0.7415   -0.5643    7.9381 O.2       1 UNK        -0.4915 
     12 O12         0.7766    0.8200    6.4128 O.2       1 UNK        -0.4915 
     13 O13         1.0998   -1.6597    6.6221 O.3       1 UNK        -0.5020 
     14 C14        -6.6123   -4.6902    3.7359 C.3       1 UNK         0.0871 
     15 C15        -7.5235   -5.0232    2.5321 C.3       1 UNK         0.1330 
     16 O16        -8.5940   -4.0954    2.4708 O.3       1 UNK        -0.6627 
     17 H17        -5.1424   -1.0599    2.3651 H         1 UNK         0.0691 
     18 H18        -3.6540   -1.7476    1.7588 H         1 UNK         0.0691 
     19 H19        -4.2137   -3.9770    2.6952 H         1 UNK         0.0706 
     20 H20        -5.4651   -3.3963    1.6225 H         1 UNK         0.0706 
     21 H21        -4.5500   -3.7987    5.1706 H         1 UNK         0.0706 
     22 H22        -6.0386   -3.1109    5.7759 H         1 UNK         0.0706 
     23 H23        -5.4750   -0.8798    4.8413 H         1 UNK         0.0691 
     24 H24        -4.2223   -1.4658    5.9104 H         1 UNK         0.0691 
     25 H25        -2.4651   -0.1046    2.9086 H         1 UNK         0.0626 
     26 H26        -3.8539    0.5957    3.7097 H         1 UNK         0.0626 
     27 H27        -1.7589    1.1231    4.8734 H         1 UNK         0.0883 
     28 H28        -2.7855    0.2343    5.9264 H         1 UNK         0.0883 
     29 H29        -0.3544   -0.9158    4.3714 H         1 UNK         0.1467 
     30 H30        -1.3835   -1.8846    5.4233 H         1 UNK         0.1467 
     31 H31         1.7518   -1.4269    5.9328 H         1 UNK         0.3980 
     32 H32        -7.1509   -4.8937    4.6645 H         1 UNK         0.0752 
     33 H33        -5.8110   -5.4334    3.7509 H         1 UNK         0.0752 
     34 H34        -6.9652   -5.0278    1.5950 H         1 UNK         0.0513 
     35 H35        -7.9294   -6.0301    2.6424 H         1 UNK         0.0513 
     36 H36        -8.1868   -3.2224    2.5979 H         1 UNK         0.4242 
@<TRIPOS>BOND
     1    1    2 1    
     2    1    6 1    
     3    1   17 1    
     4    1   18 1    
     5    2    3 1    
     6    2   19 1    
     7    2   20 1    
     8    3    4 1    
     9    3   14 1    
    10    4    5 1    
    11    4   21 1    
    12    4   22 1    
    13    5    6 1    
    14    5   23 1    
    15    5   24 1    
    16    6    7 1    
    17    7    8 1    
    18    7   25 1    
    19    7   26 1    
    20    8    9 1    
    21    8   27 1    
    22    8   28 1    
    23    9   10 1    
    24    9   29 1    
    25    9   30 1    
    26   10   11 2    
    27   10   12 2    
    28   10   13 1    
    29   13   31 1    
    30   14   15 1    
    31   14   32 1    
    32   14   33 1    
    33   15   16 1    
    34   15   34 1    
    35   15   35 1    
    36   16   36 1    
@<TRIPOS>SUBSTRUCTURE
     1 UNK         1 GROUP             0       ****    0 ROOT    
@<TRIPOS>MOLECULE
EPPS
36   36    1
SMALL
USER_CHARGES


@<TRIPOS>ATOM
      1 C1         -5.6203   -0.7753    4.5612 C.3       1 UNK         0.0986 
      2 C2         -6.4277   -2.0745    4.8314 C.3       1 UNK         0.1007 
      3 N3         -6.1916   -3.0727    3.7700 N.3       1 UNK        -0.7113 
      4 C4         -4.7402   -3.3528    3.7262 C.3       1 UNK         0.1007 
      5 C5         -3.9290   -2.0534    3.4627 C.3       1 UNK         0.0986 
      6 N6         -4.1713   -1.0532    4.5231 N.3       1 UNK        -0.7051 
      7 C7         -3.4301    0.1959    4.2953 C.3       1 UNK         0.1131 
      8 C8         -1.9026    0.0301    4.4519 C.3       1 UNK        -0.1197 
      9 C9         -1.4542   -0.4971    5.8370 C.3       1 UNK        -0.2881 
     10 S10         0.4107   -0.6348    5.9464 S.3       1 UNK         1.0110 
     11 O11         1.0102    0.7039    5.9095 O.2       1 UNK        -0.4915 
     12 O12         0.8829   -1.7084    5.0656 O.2       1 UNK        -0.4915 
     13 O13         0.5087   -1.1851    7.4911 O.3       1 UNK        -0.5020 
     14 C14        -6.9972   -4.2806    4.0366 C.3       1 UNK         0.0871 
     15 C15        -6.9932   -5.3096    2.8828 C.3       1 UNK         0.1330 
     16 O16        -7.5321   -4.7181    1.7122 O.3       1 UNK        -0.6627 
     17 H17        -5.8400   -0.0568    5.3535 H         1 UNK         0.0691 
     18 H18        -5.9585   -0.3163    3.6287 H         1 UNK         0.0691 
     19 H19        -7.4895   -1.8230    4.8754 H         1 UNK         0.0706 
     20 H20        -6.1665   -2.4741    5.8146 H         1 UNK         0.0706 
     21 H21        -4.5122   -4.0597    2.9275 H         1 UNK         0.0706 
     22 H22        -4.4008   -3.8190    4.6545 H         1 UNK         0.0706 
     23 H23        -2.8716   -2.3185    3.4271 H         1 UNK         0.0691 
     24 H24        -4.1786   -1.6508    2.4780 H         1 UNK         0.0691 
     25 H25        -3.6632    0.6092    3.3106 H         1 UNK         0.0626 
     26 H26        -3.7595    0.9386    5.0260 H         1 UNK         0.0626 
     27 H27        -1.5001   -0.5795    3.6415 H         1 UNK         0.0883 
     28 H28        -1.4518    1.0112    4.2903 H         1 UNK         0.0883 
     29 H29        -1.8477   -1.4896    6.0440 H         1 UNK         0.1467 
     30 H30        -1.7538    0.1630    6.6476 H         1 UNK         0.1467 
     31 H31         0.3219   -2.1435    7.4587 H         1 UNK         0.3980 
     32 H32        -8.0284   -4.0730    4.3325 H         1 UNK         0.0752 
     33 H33        -6.5867   -4.7802    4.9178 H         1 UNK         0.0752 
     34 H34        -5.9908   -5.6948    2.6916 H         1 UNK         0.0513 
     35 H35        -7.5984   -6.1754    3.1565 H         1 UNK         0.0513 
     36 H36        -7.1070   -3.8470    1.6438 H         1 UNK         0.4242 
@<TRIPOS>BOND
     1    1    2 1    
     2    1    6 1    
     3    1   17 1    
     4    1   18 1    
     5    2    3 1    
     6    2   19 1    
     7    2   20 1    
     8    3    4 1    
     9    3   14 1    
    10    4    5 1    
    11    4   21 1    
    12    4   22 1    
    13    5    6 1    
    14    5   23 1    
    15    5   24 1    
    16    6    7 1    
    17    7    8 1    
    18    7   25 1    
    19    7   26 1    
    20    8    9 1    
    21    8   27 1    
    22    8   28 1    
    23    9   10 1    
    24    9   29 1    
    25    9   30 1    
    26   10   11 2    
    27   10   12 2    
    28   10   13 1    
    29   13   31 1    
    30   14   15 1    
    31   14   32 1    
    32   14   33 1    
    33   15   16 1    
    34   15   34 1    
    35   15   35 1    
    36   16   36 1    
@<TRIPOS>SUBSTRUCTURE
     1 UNK         1 GROUP             0       ****    0 ROOT    
@<TRIPOS>MOLECULE
EPPS
36   36    1
SMALL
USER_CHARGES


@<TRIPOS>ATOM
      1 C1         -4.1837   -2.1934    2.5397 C.3       1 UNK         0.0986 
      2 C2         -4.8967   -3.5666    2.6818 C.3       1 UNK         0.1007 
      3 N3         -5.9469   -3.5102    3.7214 N.3       1 UNK        -0.7113 
      4 C4         -5.3065   -3.1101    4.9899 C.3       1 UNK         0.1007 
      5 C5         -4.5916   -1.7379    4.8477 C.3       1 UNK         0.0986 
      6 N6         -3.5429   -1.7952    3.8082 N.3       1 UNK        -0.7051 
      7 C7         -2.8527   -0.5085    3.6364 C.3       1 UNK         0.1131 
      8 C8         -1.9821   -0.1207    4.8522 C.3       1 UNK        -0.1197 
      9 C9         -0.8903   -1.1603    5.2131 C.3       1 UNK        -0.2881 
     10 S10         0.1161   -0.6529    6.7122 S.3       1 UNK         1.0110 
     11 O11         1.1500   -1.6611    6.9718 O.2       1 UNK        -0.4915 
     12 O12        -0.7713   -0.1774    7.7789 O.2       1 UNK        -0.4915 
     13 O13         0.8570    0.6628    6.0645 O.3       1 UNK        -0.5020 
     14 C14        -6.6407   -4.8006    3.9015 C.3       1 UNK         0.0871 
     15 C15        -7.5187   -5.2194    2.6997 C.3       1 UNK         0.1330 
     16 O16        -8.5276   -4.2473    2.4822 O.3       1 UNK        -0.6627 
     17 H17        -4.8990   -1.4377    2.2057 H         1 UNK         0.0691 
     18 H18        -3.4309   -2.2712    1.7525 H         1 UNK         0.0691 
     19 H19        -4.1622   -4.3445    2.9047 H         1 UNK         0.0706 
     20 H20        -5.3303   -3.8227    1.7144 H         1 UNK         0.0706 
     21 H21        -4.5912   -3.8653    5.3257 H         1 UNK         0.0706 
     22 H22        -6.0596   -3.0312    5.7768 H         1 UNK         0.0706 
     23 H23        -5.3231   -0.9568    4.6265 H         1 UNK         0.0691 
     24 H24        -4.1542   -1.4848    5.8142 H         1 UNK         0.0691 
     25 H25        -2.1952   -0.5761    2.7662 H         1 UNK         0.0626 
     26 H26        -3.5691    0.2878    3.4192 H         1 UNK         0.0626 
     27 H27        -1.5003    0.8281    4.6108 H         1 UNK         0.0883 
     28 H28        -2.6137    0.1142    5.7102 H         1 UNK         0.0883 
     29 H29        -0.1746   -1.3051    4.4072 H         1 UNK         0.1467 
     30 H30        -1.3204   -2.1277    5.4626 H         1 UNK         0.1467 
     31 H31         0.2404    1.4118    6.1738 H         1 UNK         0.3980 
     32 H32        -7.2295   -4.8661    4.8197 H         1 UNK         0.0752 
     33 H33        -5.8870   -5.5801    4.0391 H         1 UNK         0.0752 
     34 H34        -6.9226   -5.3626    1.7976 H         1 UNK         0.0513 
     35 H35        -7.9889   -6.1830    2.9026 H         1 UNK         0.0513 
     36 H36        -8.0743   -3.3892    2.5302 H         1 UNK         0.4242 
@<TRIPOS>BOND
     1    1    2 1    
     2    1    6 1    
     3    1   17 1    
     4    1   18 1    
     5    2    3 1    
     6    2   19 1    
     7    2   20 1    
     8    3    4 1    
     9    3   14 1    
    10    4    5 1    
    11    4   21 1    
    12    4   22 1    
    13    5    6 1    
    14    5   23 1    
    15    5   24 1    
    16    6    7 1    
    17    7    8 1    
    18    7   25 1    
    19    7   26 1    
    20    8    9 1    
    21    8   27 1    
    22    8   28 1    
    23    9   10 1    
    24    9   29 1    
    25    9   30 1    
    26   10   11 2    
    27   10   12 2    
    28   10   13 1    
    29   13   31 1    
    30   14   15 1    
    31   14   32 1    
    32   14   33 1    
    33   15   16 1    
    34   15   34 1    
    35   15   35 1    
    36   16   36 1    
@<TRIPOS>SUBSTRUCTURE
     1 UNK         1 GROUP             0       ****    0 ROOT    
@<TRIPOS>MOLECULE
EPPS
36   36    1
SMALL
USER_CHARGES


@<TRIPOS>ATOM
      1 C1         -4.5466   -1.8507    4.4972 C.3       1 UNK         0.0986 
      2 C2         -5.1927   -3.2630    4.4357 C.3       1 UNK         0.1007 
      3 N3         -5.7039   -3.5544    3.0790 N.3       1 UNK        -0.7113 
      4 C4         -4.5728   -3.4460    2.1368 C.3       1 UNK         0.1007 
      5 C5         -3.9335   -2.0316    2.1966 C.3       1 UNK         0.0986 
      6 N6         -3.4183   -1.7426    3.5492 N.3       1 UNK        -0.7051 
      7 C7         -2.7924   -0.4124    3.5707 C.3       1 UNK         0.1131 
      8 C8         -2.0456   -0.1149    4.8898 C.3       1 UNK        -0.1197 
      9 C9         -0.9272   -1.1317    5.2334 C.3       1 UNK        -0.2881 
     10 S10        -0.0772   -0.7410    6.8591 S.3       1 UNK         1.0110 
     11 O11         0.9919   -1.7168    7.0995 O.2       1 UNK        -0.4915 
     12 O12        -1.0748   -0.4324    7.8891 O.2       1 UNK        -0.4915 
     13 O13         0.6320    0.6746    6.4201 O.3       1 UNK        -0.5020 
     14 C14        -6.3098   -4.8964    2.9744 C.3       1 UNK         0.0871 
     15 C15        -7.6305   -5.0565    3.7621 C.3       1 UNK         0.1330 
     16 O16        -8.5955   -4.1417    3.2697 O.3       1 UNK        -0.6627 
     17 H17        -4.2007   -1.6836    5.5179 H         1 UNK         0.0691 
     18 H18        -5.3014   -1.0858    4.2990 H         1 UNK         0.0691 
     19 H19        -6.0043   -3.2937    5.1637 H         1 UNK         0.0706 
     20 H20        -4.4671   -4.0159    4.7534 H         1 UNK         0.0706 
     21 H21        -4.9194   -3.6297    1.1176 H         1 UNK         0.0706 
     22 H22        -3.8128   -4.2039    2.3431 H         1 UNK         0.0706 
     23 H23        -3.1187   -1.9859    1.4711 H         1 UNK         0.0691 
     24 H24        -4.6644   -1.2813    1.8844 H         1 UNK         0.0691 
     25 H25        -2.0648   -0.3538    2.7576 H         1 UNK         0.0626 
     26 H26        -3.5342    0.3665    3.3760 H         1 UNK         0.0626 
     27 H27        -1.6024    0.8771    4.7897 H         1 UNK         0.0883 
     28 H28        -2.7562   -0.0054    5.7104 H         1 UNK         0.0883 
     29 H29        -0.1412   -1.1514    4.4821 H         1 UNK         0.1467 
     30 H30        -1.3180   -2.1410    5.3422 H         1 UNK         0.1467 
     31 H31        -0.0360    1.3740    6.5540 H         1 UNK         0.3980 
     32 H32        -5.6021   -5.6255    3.3771 H         1 UNK         0.0752 
     33 H33        -6.4568   -5.2408    1.9479 H         1 UNK         0.0752 
     34 H34        -8.0102   -6.0729    3.6459 H         1 UNK         0.0513 
     35 H35        -7.4791   -4.9153    4.8330 H         1 UNK         0.0513 
     36 H36        -8.1294   -3.2929    3.1890 H         1 UNK         0.4242 
@<TRIPOS>BOND
     1    1    2 1    
     2    1    6 1    
     3    1   17 1    
     4    1   18 1    
     5    2    3 1    
     6    2   19 1    
     7    2   20 1    
     8    3    4 1    
     9    3   14 1    
    10    4    5 1    
    11    4   21 1    
    12    4   22 1    
    13    5    6 1    
    14    5   23 1    
    15    5   24 1    
    16    6    7 1    
    17    7    8 1    
    18    7   25 1    
    19    7   26 1    
    20    8    9 1    
    21    8   27 1    
    22    8   28 1    
    23    9   10 1    
    24    9   29 1    
    25    9   30 1    
    26   10   11 2    
    27   10   12 2    
    28   10   13 1    
    29   13   31 1    
    30   14   15 1    
    31   14   32 1    
    32   14   33 1    
    33   15   16 1    
    34   15   34 1    
    35   15   35 1    
    36   16   36 1    
@<TRIPOS>SUBSTRUCTURE
     1 UNK         1 GROUP             0       ****    0 ROOT    
@<TRIPOS>MOLECULE
EPPS
36   36    1
SMALL
USER_CHARGES


@<TRIPOS>ATOM
      1 C1         -4.4044    0.0872    3.6195 C.3       1 UNK         0.0986 
      2 C2         -5.5331   -0.9953    3.6496 C.3       1 UNK         0.1007 
      3 N3         -5.0422   -2.3708    3.8705 N.3       1 UNK        -0.7113 
      4 C4         -3.9525   -2.6616    2.9132 C.3       1 UNK         0.1007 
      5 C5         -2.8415   -1.5617    2.8575 C.3       1 UNK         0.0986 
      6 N6         -3.0499   -0.4633    3.8246 N.3       1 UNK        -0.7051 
      7 C7         -2.0292    0.5855    3.7250 C.3       1 UNK         0.1131 
      8 C8         -0.6652    0.1513    4.3068 C.3       1 UNK        -0.1197 
      9 C9         -0.6122   -0.0928    5.8415 C.3       1 UNK        -0.2881 
     10 S10        -1.3479   -1.7340    6.3878 S.3       1 UNK         1.0110 
     11 O11        -1.0878   -1.9359    7.8174 O.2       1 UNK        -0.4915 
     12 O12        -1.0347   -2.7824    5.4114 O.2       1 UNK        -0.4915 
     13 O13        -2.9334   -1.3500    6.2310 O.3       1 UNK        -0.5020 
     14 C14        -6.1510   -3.3412    3.8296 C.3       1 UNK         0.0871 
     15 C15        -5.7189   -4.7468    4.3094 C.3       1 UNK         0.1330 
     16 O16        -6.8332   -5.6266    4.3273 O.3       1 UNK        -0.6627 
     17 H17        -4.6129    0.8278    4.3946 H         1 UNK         0.0691 
     18 H18        -4.4527    0.6282    2.6712 H         1 UNK         0.0691 
     19 H19        -6.0995   -0.9437    2.7167 H         1 UNK         0.0706 
     20 H20        -6.2395   -0.7359    4.4409 H         1 UNK         0.0706 
     21 H21        -4.3605   -2.8105    1.9108 H         1 UNK         0.0706 
     22 H22        -3.4711   -3.6022    3.1840 H         1 UNK         0.0706 
     23 H23        -1.8777   -2.0404    3.0340 H         1 UNK         0.0691 
     24 H24        -2.7877   -1.1612    1.8423 H         1 UNK         0.0691 
     25 H25        -1.9144    0.9244    2.6921 H         1 UNK         0.0626 
     26 H26        -2.3630    1.4588    4.2909 H         1 UNK         0.0626 
     27 H27        -0.2552   -0.6973    3.7579 H         1 UNK         0.0883 
     28 H28         0.0302    0.9633    4.0868 H         1 UNK         0.0883 
     29 H29        -1.1344    0.6760    6.4066 H         1 UNK         0.1467 
     30 H30         0.4163   -0.1204    6.1946 H         1 UNK         0.1467 
     31 H31        -3.0609   -1.0941    5.2726 H         1 UNK         0.3980 
     32 H32        -6.5207   -3.3825    2.8023 H         1 UNK         0.0752 
     33 H33        -6.9225   -2.9682    4.5073 H         1 UNK         0.0752 
     34 H34        -4.9501   -5.1728    3.6635 H         1 UNK         0.0513 
     35 H35        -5.2944   -4.6882    5.3135 H         1 UNK         0.0513 
     36 H36        -7.0645   -5.8439    3.4106 H         1 UNK         0.4242 
@<TRIPOS>BOND
     1    1    2 1    
     2    1    6 1    
     3    1   17 1    
     4    1   18 1    
     5    2    3 1    
     6    2   19 1    
     7    2   20 1    
     8    3    4 1    
     9    3   14 1    
    10    4    5 1    
    11    4   21 1    
    12    4   22 1    
    13    5    6 1    
    14    5   23 1    
    15    5   24 1    
    16    6    7 1    
    17    7    8 1    
    18    7   25 1    
    19    7   26 1    
    20    8    9 1    
    21    8   27 1    
    22    8   28 1    
    23    9   10 1    
    24    9   29 1    
    25    9   30 1    
    26   10   11 2    
    27   10   12 2    
    28   10   13 1    
    29   13   31 1    
    30   14   15 1    
    31   14   32 1    
    32   14   33 1    
    33   15   16 1    
    34   15   34 1    
    35   15   35 1    
    36   16   36 1    
@<TRIPOS>SUBSTRUCTURE
     1 UNK         1 GROUP             0       ****    0 ROOT    
@<TRIPOS>MOLECULE
EPPS
36   36    1
SMALL
USER_CHARGES


@<TRIPOS>ATOM
      1 C1         -3.2465   -1.8684    2.7493 C.3       1 UNK         0.0986 
      2 C2         -4.5685   -2.6928    2.8910 C.3       1 UNK         0.1007 
      3 N3         -5.4131   -2.2935    4.0349 N.3       1 UNK        -0.7113 
      4 C4         -5.5845   -0.8267    4.0290 C.3       1 UNK         0.1007 
      5 C5         -4.2473   -0.0235    3.9133 C.3       1 UNK         0.0986 
      6 N6         -3.0439   -0.8768    3.8246 N.3       1 UNK        -0.7051 
      7 C7         -1.8062   -0.1170    3.6120 C.3       1 UNK         0.1131 
      8 C8         -1.4576    0.8115    4.8000 C.3       1 UNK        -0.1197 
      9 C9         -1.5759    0.2350    6.2417 C.3       1 UNK        -0.2881 
     10 S10        -0.9253   -1.5160    6.4300 S.3       1 UNK         1.0110 
     11 O11        -0.8168   -1.8573    7.8527 O.2       1 UNK        -0.4915 
     12 O12         0.1967   -1.7478    5.5140 O.2       1 UNK        -0.4915 
     13 O13        -2.2363   -2.3084    5.8375 O.3       1 UNK        -0.5020 
     14 C14        -6.7223   -2.9727    4.0663 C.3       1 UNK         0.0871 
     15 C15        -6.6960   -4.5064    4.2884 C.3       1 UNK         0.1330 
     16 O16        -6.3243   -5.2391    3.1273 O.3       1 UNK        -0.6627 
     17 H17        -3.2395   -1.3737    1.7750 H         1 UNK         0.0691 
     18 H18        -2.4035   -2.5627    2.7342 H         1 UNK         0.0691 
     19 H19        -4.2906   -3.7414    3.0027 H         1 UNK         0.0706 
     20 H20        -5.1384   -2.6297    1.9612 H         1 UNK         0.0706 
     21 H21        -6.0920   -0.5227    4.9468 H         1 UNK         0.0706 
     22 H22        -6.2462   -0.5300    3.2117 H         1 UNK         0.0706 
     23 H23        -4.3021    0.6380    3.0455 H         1 UNK         0.0691 
     24 H24        -4.1690    0.6341    4.7803 H         1 UNK         0.0691 
     25 H25        -0.9732   -0.8005    3.4339 H         1 UNK         0.0626 
     26 H26        -1.9008    0.4823    2.7026 H         1 UNK         0.0626 
     27 H27        -0.4261    1.1351    4.6485 H         1 UNK         0.0883 
     28 H28        -2.0232    1.7409    4.7155 H         1 UNK         0.0883 
     29 H29        -2.6033    0.2138    6.5973 H         1 UNK         0.1467 
     30 H30        -1.0030    0.8317    6.9479 H         1 UNK         0.1467 
     31 H31        -2.5554   -1.7935    5.0433 H         1 UNK         0.3980 
     32 H32        -7.4057   -2.6993    3.2593 H         1 UNK         0.0752 
     33 H33        -7.2225   -2.5818    4.9553 H         1 UNK         0.0752 
     34 H34        -6.0420   -4.7592    5.1253 H         1 UNK         0.0513 
     35 H35        -7.6918   -4.8367    4.5898 H         1 UNK         0.0513 
     36 H36        -6.3391   -6.1828    3.3499 H         1 UNK         0.4242 
@<TRIPOS>BOND
     1    1    2 1    
     2    1    6 1    
     3    1   17 1    
     4    1   18 1    
     5    2    3 1    
     6    2   19 1    
     7    2   20 1    
     8    3    4 1    
     9    3   14 1    
    10    4    5 1    
    11    4   21 1    
    12    4   22 1    
    13    5    6 1    
    14    5   23 1    
    15    5   24 1    
    16    6    7 1    
    17    7    8 1    
    18    7   25 1    
    19    7   26 1    
    20    8    9 1    
    21    8   27 1    
    22    8   28 1    
    23    9   10 1    
    24    9   29 1    
    25    9   30 1    
    26   10   11 2    
    27   10   12 2    
    28   10   13 1    
    29   13   31 1    
    30   14   15 1    
    31   14   32 1    
    32   14   33 1    
    33   15   16 1    
    34   15   34 1    
    35   15   35 1    
    36   16   36 1    
@<TRIPOS>SUBSTRUCTURE
     1 UNK         1 GROUP             0       ****    0 ROOT    
@<TRIPOS>MOLECULE
EPPS
36   36    1
SMALL
USER_CHARGES


@<TRIPOS>ATOM
      1 C1         -4.7508   -0.2093    5.1028 C.3       1 UNK         0.0986 
      2 C2         -5.8341   -1.3374    5.0943 C.3       1 UNK         0.1007 
      3 N3         -5.4222   -2.5680    4.3896 N.3       1 UNK        -0.7113 
      4 C4         -4.9053   -2.2165    3.0513 C.3       1 UNK         0.1007 
      5 C5         -3.8452   -1.0659    3.0521 C.3       1 UNK         0.0986 
      6 N6         -3.5025   -0.5732    4.4027 N.3       1 UNK        -0.7051 
      7 C7         -2.5609    0.5528    4.3921 C.3       1 UNK         0.1131 
      8 C8         -1.1718    0.1721    3.8260 C.3       1 UNK        -0.1197 
      9 C9         -0.5229   -1.1593    4.3069 C.3       1 UNK        -0.2881 
     10 S10        -0.7087   -1.4897    6.1456 S.3       1 UNK         1.0110 
     11 O11        -0.7140   -0.2290    6.8955 O.2       1 UNK        -0.4915 
     12 O12         0.1666   -2.5975    6.5441 O.2       1 UNK        -0.4915 
     13 O13        -2.2453   -2.0691    6.1160 O.3       1 UNK        -0.5020 
     14 C14        -6.5261   -3.5461    4.3570 C.3       1 UNK         0.0871 
     15 C15        -6.1736   -4.9636    3.8386 C.3       1 UNK         0.1330 
     16 O16        -6.0477   -5.0327    2.4235 O.3       1 UNK        -0.6627 
     17 H17        -4.5214    0.0448    6.1399 H         1 UNK         0.0691 
     18 H18        -5.1781    0.6958    4.6642 H         1 UNK         0.0691 
     19 H19        -6.7521   -0.9421    4.6529 H         1 UNK         0.0706 
     20 H20        -6.0842   -1.5843    6.1281 H         1 UNK         0.0706 
     21 H21        -5.7302   -1.9506    2.3865 H         1 UNK         0.0706 
     22 H22        -4.4346   -3.0954    2.6095 H         1 UNK         0.0706 
     23 H23        -2.9464   -1.4303    2.5525 H         1 UNK         0.0691 
     24 H24        -4.2118   -0.2422    2.4351 H         1 UNK         0.0691 
     25 H25        -2.9798    1.3691    3.7978 H         1 UNK         0.0626 
     26 H26        -2.4406    0.9499    5.4024 H         1 UNK         0.0626 
     27 H27        -1.1991    0.2088    2.7357 H         1 UNK         0.0883 
     28 H28        -0.4968    0.9902    4.0842 H         1 UNK         0.0883 
     29 H29         0.5489   -1.1591    4.1218 H         1 UNK         0.1467 
     30 H30        -0.9367   -2.0288    3.8017 H         1 UNK         0.1467 
     31 H31        -2.7622   -1.4956    5.4823 H         1 UNK         0.3980 
     32 H32        -7.4559   -3.1807    3.9153 H         1 UNK         0.0752 
     33 H33        -6.7959   -3.7032    5.4038 H         1 UNK         0.0752 
     34 H34        -6.9619   -5.6559    4.1400 H         1 UNK         0.0513 
     35 H35        -5.2659   -5.3312    4.3213 H         1 UNK         0.0513 
     36 H36        -5.8358   -5.9484    2.1850 H         1 UNK         0.4242 
@<TRIPOS>BOND
     1    1    2 1    
     2    1    6 1    
     3    1   17 1    
     4    1   18 1    
     5    2    3 1    
     6    2   19 1    
     7    2   20 1    
     8    3    4 1    
     9    3   14 1    
    10    4    5 1    
    11    4   21 1    
    12    4   22 1    
    13    5    6 1    
    14    5   23 1    
    15    5   24 1    
    16    6    7 1    
    17    7    8 1    
    18    7   25 1    
    19    7   26 1    
    20    8    9 1    
    21    8   27 1    
    22    8   28 1    
    23    9   10 1    
    24    9   29 1    
    25    9   30 1    
    26   10   11 2    
    27   10   12 2    
    28   10   13 1    
    29   13   31 1    
    30   14   15 1    
    31   14   32 1    
    32   14   33 1    
    33   15   16 1    
    34   15   34 1    
    35   15   35 1    
    36   16   36 1    
@<TRIPOS>SUBSTRUCTURE
     1 UNK         1 GROUP             0       ****    0 ROOT    
@<TRIPOS>MOLECULE
EPPS
36   36    1
SMALL
USER_CHARGES


@<TRIPOS>ATOM
      1 C1         -4.2491   -0.7031    3.5474 C.3       1 UNK         0.0986 
      2 C2         -5.2274   -1.9168    3.4156 C.3       1 UNK         0.1007 
      3 N3         -4.5603   -3.2341    3.3751 N.3       1 UNK        -0.7113 
      4 C4         -3.4676   -3.1992    2.3825 C.3       1 UNK         0.1007 
      5 C5         -2.4881   -1.9912    2.5482 C.3       1 UNK         0.0986 
      6 N6         -2.8291   -1.0939    3.6703 N.3       1 UNK        -0.7051 
      7 C7         -1.9110    0.0501    3.7235 C.3       1 UNK         0.1131 
      8 C8         -2.1138    0.9283    4.9815 C.3       1 UNK        -0.1197 
      9 C9         -2.2783    0.2153    6.3560 C.3       1 UNK        -0.2881 
     10 S10        -1.1106   -1.2306    6.6214 S.3       1 UNK         1.0110 
     11 O11        -1.1417   -1.6449    8.0284 O.2       1 UNK        -0.4915 
     12 O12         0.1643   -0.9930    5.9360 O.2       1 UNK        -0.4915 
     13 O13        -1.9460   -2.3550    5.7638 O.3       1 UNK        -0.5020 
     14 C14        -5.4818   -4.3526    3.0995 C.3       1 UNK         0.0871 
     15 C15        -6.5513   -4.6449    4.1825 C.3       1 UNK         0.1330 
     16 O16        -7.6355   -3.7243    4.1694 O.3       1 UNK        -0.6627 
     17 H17        -4.5481   -0.1175    4.4181 H         1 UNK         0.0691 
     18 H18        -4.3824   -0.0420    2.6879 H         1 UNK         0.0691 
     19 H19        -5.8543   -1.7843    2.5310 H         1 UNK         0.0706 
     20 H20        -5.9039   -1.8867    4.2705 H         1 UNK         0.0706 
     21 H21        -3.8804   -3.1832    1.3709 H         1 UNK         0.0706 
     22 H22        -2.8911   -4.1239    2.4532 H         1 UNK         0.0706 
     23 H23        -1.4777   -2.3800    2.6919 H         1 UNK         0.0691 
     24 H24        -2.4579   -1.4283    1.6119 H         1 UNK         0.0691 
     25 H25        -0.8763   -0.2983    3.6915 H         1 UNK         0.0626 
     26 H26        -2.0472    0.6652    2.8301 H         1 UNK         0.0626 
     27 H27        -1.2451    1.5866    5.0435 H         1 UNK         0.0883 
     28 H28        -2.9386    1.6226    4.8131 H         1 UNK         0.0883 
     29 H29        -3.2816   -0.1776    6.5024 H         1 UNK         0.1467 
     30 H30        -2.0780    0.9006    7.1765 H         1 UNK         0.1467 
     31 H31        -2.2781   -1.9047    4.9363 H         1 UNK         0.3980 
     32 H32        -4.8515   -5.2449    3.0982 H         1 UNK         0.0752 
     33 H33        -5.9177   -4.3580    2.0979 H         1 UNK         0.0752 
     34 H34        -6.9574   -5.6445    4.0169 H         1 UNK         0.0513 
     35 H35        -6.0918   -4.6801    5.1723 H         1 UNK         0.0513 
     36 H36        -8.2568   -3.9817    4.8680 H         1 UNK         0.4242 
@<TRIPOS>BOND
     1    1    2 1    
     2    1    6 1    
     3    1   17 1    
     4    1   18 1    
     5    2    3 1    
     6    2   19 1    
     7    2   20 1    
     8    3    4 1    
     9    3   14 1    
    10    4    5 1    
    11    4   21 1    
    12    4   22 1    
    13    5    6 1    
    14    5   23 1    
    15    5   24 1    
    16    6    7 1    
    17    7    8 1    
    18    7   25 1    
    19    7   26 1    
    20    8    9 1    
    21    8   27 1    
    22    8   28 1    
    23    9   10 1    
    24    9   29 1    
    25    9   30 1    
    26   10   11 2    
    27   10   12 2    
    28   10   13 1    
    29   13   31 1    
    30   14   15 1    
    31   14   32 1    
    32   14   33 1    
    33   15   16 1    
    34   15   34 1    
    35   15   35 1    
    36   16   36 1    
@<TRIPOS>SUBSTRUCTURE
     1 UNK         1 GROUP             0       ****    0 ROOT    
@<TRIPOS>MOLECULE
EPPS
36   36    1
SMALL
USER_CHARGES


@<TRIPOS>ATOM
      1 C1         -4.3751   -1.8389    4.8537 C.3       1 UNK         0.0986 
      2 C2         -4.3747   -3.3671    5.1488 C.3       1 UNK         0.1007 
      3 N3         -4.3458   -4.2068    3.9356 N.3       1 UNK        -0.7113 
      4 C4         -3.3468   -3.7288    2.9579 C.3       1 UNK         0.1007 
      5 C5         -3.3802   -2.1932    2.7200 C.3       1 UNK         0.0986 
      6 N6         -3.2378   -1.4568    3.9907 N.3       1 UNK        -0.7051 
      7 C7         -3.2183   -0.0110    3.7314 C.3       1 UNK         0.1131 
      8 C8         -2.7509    0.8215    4.9477 C.3       1 UNK        -0.1197 
      9 C9         -1.2684    0.6488    5.3833 C.3       1 UNK        -0.2881 
     10 S10        -0.9273   -0.9340    6.3357 S.3       1 UNK         1.0110 
     11 O11        -2.0482   -1.2408    7.2303 O.2       1 UNK        -0.4915 
     12 O12         0.4532   -0.9251    6.8319 O.2       1 UNK        -0.4915 
     13 O13        -0.9873   -1.9806    5.0762 O.3       1 UNK        -0.5020 
     14 C14        -5.6506   -4.6508    3.4011 C.3       1 UNK         0.0871 
     15 C15        -6.6716   -3.6017    2.8936 C.3       1 UNK         0.1330 
     16 O16        -7.3395   -2.9276    3.9516 O.3       1 UNK        -0.6627 
     17 H17        -4.3225   -1.3162    5.8091 H         1 UNK         0.0691 
     18 H18        -5.3195   -1.5310    4.4041 H         1 UNK         0.0691 
     19 H19        -5.2491   -3.6149    5.7540 H         1 UNK         0.0706 
     20 H20        -3.5114   -3.6135    5.7699 H         1 UNK         0.0706 
     21 H21        -3.4733   -4.2405    2.0019 H         1 UNK         0.0706 
     22 H22        -2.3526   -4.0150    3.3069 H         1 UNK         0.0706 
     23 H23        -2.5543   -1.9356    2.0532 H         1 UNK         0.0691 
     24 H24        -4.2877   -1.9004    2.1904 H         1 UNK         0.0691 
     25 H25        -2.5215    0.1924    2.9143 H         1 UNK         0.0626 
     26 H26        -4.1938    0.3397    3.3841 H         1 UNK         0.0626 
     27 H27        -2.8809    1.8677    4.6653 H         1 UNK         0.0883 
     28 H28        -3.4270    0.6972    5.7945 H         1 UNK         0.0883 
     29 H29        -0.9661    1.4472    6.0574 H         1 UNK         0.1467 
     30 H30        -0.5805    0.6505    4.5408 H         1 UNK         0.1467 
     31 H31        -1.8820   -1.8370    4.6527 H         1 UNK         0.3980 
     32 H32        -6.1436   -5.3839    4.0424 H         1 UNK         0.0752 
     33 H33        -5.4049   -5.2636    2.5314 H         1 UNK         0.0752 
     34 H34        -6.2124   -2.8918    2.2071 H         1 UNK         0.0513 
     35 H35        -7.4304   -4.1165    2.3014 H         1 UNK         0.0513 
     36 H36        -8.0108   -2.3462    3.5631 H         1 UNK         0.4242 
@<TRIPOS>BOND
     1    1    2 1    
     2    1    6 1    
     3    1   17 1    
     4    1   18 1    
     5    2    3 1    
     6    2   19 1    
     7    2   20 1    
     8    3    4 1    
     9    3   14 1    
    10    4    5 1    
    11    4   21 1    
    12    4   22 1    
    13    5    6 1    
    14    5   23 1    
    15    5   24 1    
    16    6    7 1    
    17    7    8 1    
    18    7   25 1    
    19    7   26 1    
    20    8    9 1    
    21    8   27 1    
    22    8   28 1    
    23    9   10 1    
    24    9   29 1    
    25    9   30 1    
    26   10   11 2    
    27   10   12 2    
    28   10   13 1    
    29   13   31 1    
    30   14   15 1    
    31   14   32 1    
    32   14   33 1    
    33   15   16 1    
    34   15   34 1    
    35   15   35 1    
    36   16   36 1    
@<TRIPOS>SUBSTRUCTURE
     1 UNK         1 GROUP             0       ****    0 ROOT    
@<TRIPOS>MOLECULE
EPPS
36   36    1
SMALL
USER_CHARGES


@<TRIPOS>ATOM
      1 C1         -4.9221   -1.7477    5.0514 C.3       1 UNK         0.0986 
      2 C2         -4.9709   -3.2578    5.4265 C.3       1 UNK         0.1007 
      3 N3         -4.5227   -4.1550    4.3439 N.3       1 UNK        -0.7113 
      4 C4         -3.2776   -3.6758    3.7101 C.3       1 UNK         0.1007 
      5 C5         -3.2844   -2.1588    3.3730 C.3       1 UNK         0.0986 
      6 N6         -3.5825   -1.3520    4.5743 N.3       1 UNK        -0.7051 
      7 C7         -3.5633    0.0867    4.2776 C.3       1 UNK         0.1131 
      8 C8         -2.1367    0.6526    4.0891 C.3       1 UNK        -0.1197 
      9 C9         -1.2225    0.6717    5.3466 C.3       1 UNK        -0.2881 
     10 S10        -0.5035   -1.0038    5.7990 S.3       1 UNK         1.0110 
     11 O11         0.4593   -0.8494    6.8950 O.2       1 UNK        -0.4915 
     12 O12        -0.1527   -1.7506    4.5865 O.2       1 UNK        -0.4915 
     13 O13        -1.8587   -1.6755    6.4297 O.3       1 UNK        -0.5020 
     14 C14        -5.5691   -4.6941    3.4496 C.3       1 UNK         0.0871 
     15 C15        -6.3993   -3.7292    2.5663 C.3       1 UNK         0.1330 
     16 O16        -7.3918   -3.0263    3.3013 O.3       1 UNK        -0.6627 
     17 H17        -5.1822   -1.1686    5.9400 H         1 UNK         0.0691 
     18 H18        -5.6838   -1.5070    4.3091 H         1 UNK         0.0691 
     19 H19        -5.9867   -3.5180    5.7310 H         1 UNK         0.0706 
     20 H20        -4.3496   -3.4305    6.3074 H         1 UNK         0.0706 
     21 H21        -3.0702   -4.2424    2.8003 H         1 UNK         0.0706 
     22 H22        -2.4406   -3.8894    4.3779 H         1 UNK         0.0706 
     23 H23        -2.3007   -1.9028    2.9780 H         1 UNK         0.0691 
     24 H24        -3.9868   -1.9423    2.5674 H         1 UNK         0.0691 
     25 H25        -4.1816    0.3175    3.4060 H         1 UNK         0.0626 
     26 H26        -4.0162    0.6259    5.1135 H         1 UNK         0.0626 
     27 H27        -1.6332    0.1812    3.2443 H         1 UNK         0.0883 
     28 H28        -2.2624    1.6887    3.7696 H         1 UNK         0.0883 
     29 H29        -1.7379    1.0307    6.2347 H         1 UNK         0.1467 
     30 H30        -0.3563    1.3101    5.1874 H         1 UNK         0.1467 
     31 H31        -2.5489   -1.6099    5.7088 H         1 UNK         0.3980 
     32 H32        -6.2219   -5.4141    3.9467 H         1 UNK         0.0752 
     33 H33        -5.0352   -5.3420    2.7514 H         1 UNK         0.0752 
     34 H34        -5.7624   -3.0407    2.0126 H         1 UNK         0.0513 
     35 H35        -6.9113   -4.3159    1.8014 H         1 UNK         0.0513 
     36 H36        -7.9152   -2.5012    2.6767 H         1 UNK         0.4242 
@<TRIPOS>BOND
     1    1    2 1    
     2    1    6 1    
     3    1   17 1    
     4    1   18 1    
     5    2    3 1    
     6    2   19 1    
     7    2   20 1    
     8    3    4 1    
     9    3   14 1    
    10    4    5 1    
    11    4   21 1    
    12    4   22 1    
    13    5    6 1    
    14    5   23 1    
    15    5   24 1    
    16    6    7 1    
    17    7    8 1    
    18    7   25 1    
    19    7   26 1    
    20    8    9 1    
    21    8   27 1    
    22    8   28 1    
    23    9   10 1    
    24    9   29 1    
    25    9   30 1    
    26   10   11 2    
    27   10   12 2    
    28   10   13 1    
    29   13   31 1    
    30   14   15 1    
    31   14   32 1    
    32   14   33 1    
    33   15   16 1    
    34   15   34 1    
    35   15   35 1    
    36   16   36 1    
@<TRIPOS>SUBSTRUCTURE
     1 UNK         1 GROUP             0       ****    0 ROOT    
@<TRIPOS>MOLECULE
EPPS
36   36    1
SMALL
USER_CHARGES


@<TRIPOS>ATOM
      1 C1         -3.7289   -2.8062    5.4612 C.3       1 UNK         0.0986 
      2 C2         -5.1853   -2.8384    4.9103 C.3       1 UNK         0.1007 
      3 N3         -5.2026   -3.1788    3.4714 N.3       1 UNK        -0.7113 
      4 C4         -4.3742   -2.1940    2.7473 C.3       1 UNK         0.1007 
      5 C5         -2.9197   -2.1728    3.2995 C.3       1 UNK         0.0986 
      6 N6         -2.8590   -1.8503    4.7426 N.3       1 UNK        -0.7051 
      7 C7         -3.1711   -0.4514    5.0777 C.3       1 UNK         0.1131 
      8 C8         -2.1681    0.5566    4.4672 C.3       1 UNK        -0.1197 
      9 C9         -0.6491    0.2411    4.5910 C.3       1 UNK        -0.2881 
     10 S10        -0.1328   -0.3768    6.2860 S.3       1 UNK         1.0110 
     11 O11        -0.9457    0.2568    7.3299 O.2       1 UNK        -0.4915 
     12 O12         1.3306   -0.4068    6.3845 O.2       1 UNK        -0.4915 
     13 O13        -0.6437   -1.9288    6.1195 O.3       1 UNK        -0.5020 
     14 C14        -6.5637   -3.2037    2.9031 C.3       1 UNK         0.0871 
     15 C15        -7.4126   -4.3722    3.4575 C.3       1 UNK         0.1330 
     16 O16        -8.6766   -4.4125    2.8124 O.3       1 UNK        -0.6627 
     17 H17        -3.2966   -3.8074    5.3996 H         1 UNK         0.0691 
     18 H18        -3.7515   -2.5682    6.5269 H         1 UNK         0.0691 
     19 H19        -5.6856   -1.8860    5.0981 H         1 UNK         0.0706 
     20 H20        -5.7353   -3.5860    5.4827 H         1 UNK         0.0706 
     21 H21        -4.8126   -1.1947    2.7952 H         1 UNK         0.0706 
     22 H22        -4.3343   -2.4541    1.6874 H         1 UNK         0.0706 
     23 H23        -2.4549   -3.1463    3.1286 H         1 UNK         0.0691 
     24 H24        -2.3225   -1.4692    2.7182 H         1 UNK         0.0691 
     25 H25        -4.1772   -0.1986    4.7371 H         1 UNK         0.0626 
     26 H26        -3.1873   -0.3264    6.1626 H         1 UNK         0.0626 
     27 H27        -2.4332    0.7531    3.4272 H         1 UNK         0.0883 
     28 H28        -2.3556    1.5155    4.9542 H         1 UNK         0.0883 
     29 H29        -0.0496    1.1313    4.4142 H         1 UNK         0.1467 
     30 H30        -0.3221   -0.5147    3.8808 H         1 UNK         0.1467 
     31 H31        -1.5137   -1.8936    5.6340 H         1 UNK         0.3980 
     32 H32        -6.4568   -3.3354    1.8238 H         1 UNK         0.0752 
     33 H33        -7.0418   -2.2478    3.1316 H         1 UNK         0.0752 
     34 H34        -7.5857   -4.2599    4.5283 H         1 UNK         0.0513 
     35 H35        -6.8986   -5.3249    3.3152 H         1 UNK         0.0513 
     36 H36        -8.5462   -4.7445    1.9102 H         1 UNK         0.4242 
@<TRIPOS>BOND
     1    1    2 1    
     2    1    6 1    
     3    1   17 1    
     4    1   18 1    
     5    2    3 1    
     6    2   19 1    
     7    2   20 1    
     8    3    4 1    
     9    3   14 1    
    10    4    5 1    
    11    4   21 1    
    12    4   22 1    
    13    5    6 1    
    14    5   23 1    
    15    5   24 1    
    16    6    7 1    
    17    7    8 1    
    18    7   25 1    
    19    7   26 1    
    20    8    9 1    
    21    8   27 1    
    22    8   28 1    
    23    9   10 1    
    24    9   29 1    
    25    9   30 1    
    26   10   11 2    
    27   10   12 2    
    28   10   13 1    
    29   13   31 1    
    30   14   15 1    
    31   14   32 1    
    32   14   33 1    
    33   15   16 1    
    34   15   34 1    
    35   15   35 1    
    36   16   36 1    
@<TRIPOS>SUBSTRUCTURE
     1 UNK         1 GROUP             0       ****    0 ROOT    
@<TRIPOS>MOLECULE
EPPS
36   36    1
SMALL
USER_CHARGES


@<TRIPOS>ATOM
      1 C1         -4.5992   -0.2331    4.0350 C.3       1 UNK         0.0986 
      2 C2         -5.5224   -1.4863    4.1931 C.3       1 UNK         0.1007 
      3 N3         -4.7819   -2.7617    4.2688 N.3       1 UNK        -0.7113 
      4 C4         -3.8054   -2.8593    3.1653 C.3       1 UNK         0.1007 
      5 C5         -2.9050   -1.5898    3.0081 C.3       1 UNK         0.0986 
      6 N6         -3.1566   -0.5509    4.0306 N.3       1 UNK        -0.7051 
      7 C7         -2.3481    0.6559    3.8259 C.3       1 UNK         0.1131 
      8 C8         -0.8624    0.4540    4.1992 C.3       1 UNK        -0.1197 
      9 C9         -0.5526    0.2135    5.7038 C.3       1 UNK        -0.2881 
     10 S10        -0.9204   -1.5314    6.2978 S.3       1 UNK         1.0110 
     11 O11        -0.4339   -1.6939    7.6723 O.2       1 UNK        -0.4915 
     12 O12        -0.5751   -2.5061    5.2579 O.2       1 UNK        -0.4915 
     13 O13        -2.5540   -1.4207    6.3693 O.3       1 UNK        -0.5020 
     14 C14        -5.6272   -3.9569    4.4521 C.3       1 UNK         0.0871 
     15 C15        -6.5887   -4.2727    3.2786 C.3       1 UNK         0.1330 
     16 O16        -7.3411   -5.4389    3.5749 O.3       1 UNK        -0.6627 
     17 H17        -4.8124    0.4588    4.8526 H         1 UNK         0.0691 
     18 H18        -4.8705    0.2978    3.1191 H         1 UNK         0.0691 
     19 H19        -6.2257   -1.5016    3.3590 H         1 UNK         0.0706 
     20 H20        -6.1275   -1.3684    5.0942 H         1 UNK         0.0706 
     21 H21        -4.3155   -3.0380    2.2174 H         1 UNK         0.0706 
     22 H22        -3.1646   -3.7279    3.3303 H         1 UNK         0.0706 
     23 H23        -1.8622   -1.9066    3.0441 H         1 UNK         0.0691 
     24 H24        -3.0497   -1.1727    2.0086 H         1 UNK         0.0691 
     25 H25        -2.4387    1.0195    2.7991 H         1 UNK         0.0626 
     26 H26        -2.7385    1.4548    4.4612 H         1 UNK         0.0626 
     27 H27        -0.3998   -0.3109    3.5742 H         1 UNK         0.0883 
     28 H28        -0.3493    1.3724    3.9087 H         1 UNK         0.0883 
     29 H29        -1.1099    0.8799    6.3584 H         1 UNK         0.1467 
     30 H30         0.5057    0.3577    5.9099 H         1 UNK         0.1467 
     31 H31        -2.8545   -1.1832    5.4454 H         1 UNK         0.3980 
     32 H32        -6.2017   -3.7857    5.3648 H         1 UNK         0.0752 
     33 H33        -4.9424   -4.7937    4.6046 H         1 UNK         0.0752 
     34 H34        -7.2799   -3.4482    3.0992 H         1 UNK         0.0513 
     35 H35        -6.0410   -4.4375    2.3499 H         1 UNK         0.0513 
     36 H36        -7.9340   -5.6147    2.8270 H         1 UNK         0.4242 
@<TRIPOS>BOND
     1    1    2 1    
     2    1    6 1    
     3    1   17 1    
     4    1   18 1    
     5    2    3 1    
     6    2   19 1    
     7    2   20 1    
     8    3    4 1    
     9    3   14 1    
    10    4    5 1    
    11    4   21 1    
    12    4   22 1    
    13    5    6 1    
    14    5   23 1    
    15    5   24 1    
    16    6    7 1    
    17    7    8 1    
    18    7   25 1    
    19    7   26 1    
    20    8    9 1    
    21    8   27 1    
    22    8   28 1    
    23    9   10 1    
    24    9   29 1    
    25    9   30 1    
    26   10   11 2    
    27   10   12 2    
    28   10   13 1    
    29   13   31 1    
    30   14   15 1    
    31   14   32 1    
    32   14   33 1    
    33   15   16 1    
    34   15   34 1    
    35   15   35 1    
    36   16   36 1    
@<TRIPOS>SUBSTRUCTURE
     1 UNK         1 GROUP             0       ****    0 ROOT    
@<TRIPOS>MOLECULE
EPPS
36   36    1
SMALL
USER_CHARGES


@<TRIPOS>ATOM
      1 C1         -4.2456   -0.4596    4.5501 C.3       1 UNK         0.0986 
      2 C2         -5.1375   -1.7348    4.7085 C.3       1 UNK         0.1007 
      3 N3         -4.5836   -2.9328    4.0462 N.3       1 UNK        -0.7113 
      4 C4         -4.1925   -2.6222    2.6565 C.3       1 UNK         0.1007 
      5 C5         -3.3022   -1.3423    2.5264 C.3       1 UNK         0.0986 
      6 N6         -2.9828   -0.7031    3.8192 N.3       1 UNK        -0.7051 
      7 C7         -2.1930    0.5180    3.6263 C.3       1 UNK         0.1131 
      8 C8         -1.5087    1.0020    4.9244 C.3       1 UNK        -0.1197 
      9 C9         -0.3927    0.0864    5.5023 C.3       1 UNK        -0.2881 
     10 S10        -1.0325   -1.4220    6.4232 S.3       1 UNK         1.0110 
     11 O11        -2.2411   -1.0808    7.1807 O.2       1 UNK        -0.4915 
     12 O12         0.0887   -2.1144    7.0681 O.2       1 UNK        -0.4915 
     13 O13        -1.4804   -2.3212    5.1283 O.3       1 UNK        -0.5020 
     14 C14        -5.3962   -4.1546    4.2008 C.3       1 UNK         0.0871 
     15 C15        -6.7940   -4.1074    3.5336 C.3       1 UNK         0.1330 
     16 O16        -7.4721   -5.3347    3.7523 O.3       1 UNK        -0.6627 
     17 H17        -4.0332   -0.0680    5.5455 H         1 UNK         0.0691 
     18 H18        -4.8240    0.3190    4.0470 H         1 UNK         0.0691 
     19 H19        -6.1320   -1.5084    4.3208 H         1 UNK         0.0706 
     20 H20        -5.2696   -1.9429    5.7722 H         1 UNK         0.0706 
     21 H21        -5.0769   -2.4900    2.0311 H         1 UNK         0.0706 
     22 H22        -3.6522   -3.4731    2.2369 H         1 UNK         0.0706 
     23 H23        -2.3734   -1.6171    2.0220 H         1 UNK         0.0691 
     24 H24        -3.7982   -0.6274    1.8652 H         1 UNK         0.0691 
     25 H25        -1.4043    0.3172    2.8969 H         1 UNK         0.0626 
     26 H26        -2.8029    1.3158    3.1948 H         1 UNK         0.0626 
     27 H27        -1.0449    1.9602    4.6834 H         1 UNK         0.0883 
     28 H28        -2.2458    1.2549    5.6874 H         1 UNK         0.0883 
     29 H29         0.2083    0.6219    6.2338 H         1 UNK         0.1467 
     30 H30         0.2798   -0.2902    4.7349 H         1 UNK         0.1467 
     31 H31        -2.1540   -1.7730    4.6323 H         1 UNK         0.3980 
     32 H32        -5.5046   -4.3141    5.2756 H         1 UNK         0.0752 
     33 H33        -4.8081   -4.9674    3.7696 H         1 UNK         0.0752 
     34 H34        -7.4005   -3.2968    3.9395 H         1 UNK         0.0513 
     35 H35        -6.7153   -3.9392    2.4588 H         1 UNK         0.0513 
     36 H36        -8.3422   -5.2799    3.3260 H         1 UNK         0.4242 
@<TRIPOS>BOND
     1    1    2 1    
     2    1    6 1    
     3    1   17 1    
     4    1   18 1    
     5    2    3 1    
     6    2   19 1    
     7    2   20 1    
     8    3    4 1    
     9    3   14 1    
    10    4    5 1    
    11    4   21 1    
    12    4   22 1    
    13    5    6 1    
    14    5   23 1    
    15    5   24 1    
    16    6    7 1    
    17    7    8 1    
    18    7   25 1    
    19    7   26 1    
    20    8    9 1    
    21    8   27 1    
    22    8   28 1    
    23    9   10 1    
    24    9   29 1    
    25    9   30 1    
    26   10   11 2    
    27   10   12 2    
    28   10   13 1    
    29   13   31 1    
    30   14   15 1    
    31   14   32 1    
    32   14   33 1    
    33   15   16 1    
    34   15   34 1    
    35   15   35 1    
    36   16   36 1    
@<TRIPOS>SUBSTRUCTURE
     1 UNK         1 GROUP             0       ****    0 ROOT    
@<TRIPOS>MOLECULE
EPPS
36   36    1
SMALL
USER_CHARGES


@<TRIPOS>ATOM
      1 C1         -4.3778   -1.6025    5.3611 C.3       1 UNK         0.0986 
      2 C2         -4.4448   -3.1170    5.7022 C.3       1 UNK         0.1007 
      3 N3         -4.7514   -3.9780    4.5416 N.3       1 UNK        -0.7113 
      4 C4         -3.9234   -3.6270    3.3715 C.3       1 UNK         0.1007 
      5 C5         -3.8608   -2.0968    3.0890 C.3       1 UNK         0.0986 
      6 N6         -3.4063   -1.3478    4.2771 N.3       1 UNK        -0.7051 
      7 C7         -3.3145    0.0836    3.9592 C.3       1 UNK         0.1131 
      8 C8         -2.5440    0.8980    5.0240 C.3       1 UNK        -0.1197 
      9 C9         -1.0236    0.6035    5.1617 C.3       1 UNK        -0.2881 
     10 S10        -0.6292   -0.9854    6.0829 S.3       1 UNK         1.0110 
     11 O11        -1.5665   -1.1746    7.1948 O.2       1 UNK        -0.4915 
     12 O12         0.8192   -1.0899    6.2913 O.2       1 UNK        -0.4915 
     13 O13        -1.0307   -2.0457    4.8997 O.3       1 UNK        -0.5020 
     14 C14        -6.1757   -4.2860    4.2915 C.3       1 UNK         0.0871 
     15 C15        -7.0908   -3.2157    3.6431 C.3       1 UNK         0.1330 
     16 O16        -6.8756   -3.0780    2.2447 O.3       1 UNK        -0.6627 
     17 H17        -4.0829   -1.0719    6.2670 H         1 UNK         0.0691 
     18 H18        -5.3658   -1.2169    5.1071 H         1 UNK         0.0691 
     19 H19        -5.1763   -3.2719    6.4975 H         1 UNK         0.0706 
     20 H20        -3.4891   -3.4300    6.1276 H         1 UNK         0.0706 
     21 H21        -4.2922   -4.1425    2.4827 H         1 UNK         0.0706 
     22 H22        -2.9117   -4.0062    3.5283 H         1 UNK         0.0706 
     23 H23        -3.1669   -1.9320    2.2619 H         1 UNK         0.0691 
     24 H24        -4.8261   -1.7249    2.7433 H         1 UNK         0.0691 
     25 H25        -2.7795    0.2018    3.0135 H         1 UNK         0.0626 
     26 H26        -4.3056    0.5148    3.7951 H         1 UNK         0.0626 
     27 H27        -2.6414    1.9453    4.7323 H         1 UNK         0.0883 
     28 H28        -3.0425    0.8526    5.9930 H         1 UNK         0.0883 
     29 H29        -0.5268    1.3846    5.7330 H         1 UNK         0.1467 
     30 H30        -0.5219    0.5291    4.1995 H         1 UNK         0.1467 
     31 H31        -1.9782   -1.8322    4.6611 H         1 UNK         0.3980 
     32 H32        -6.6037   -4.4768    5.2778 H         1 UNK         0.0752 
     33 H33        -6.3185   -5.2559    3.8112 H         1 UNK         0.0752 
     34 H34        -8.1317   -3.5087    3.7919 H         1 UNK         0.0513 
     35 H35        -6.9920   -2.2526    4.1412 H         1 UNK         0.0513 
     36 H36        -7.1883   -3.8848    1.8087 H         1 UNK         0.4242 
@<TRIPOS>BOND
     1    1    2 1    
     2    1    6 1    
     3    1   17 1    
     4    1   18 1    
     5    2    3 1    
     6    2   19 1    
     7    2   20 1    
     8    3    4 1    
     9    3   14 1    
    10    4    5 1    
    11    4   21 1    
    12    4   22 1    
    13    5    6 1    
    14    5   23 1    
    15    5   24 1    
    16    6    7 1    
    17    7    8 1    
    18    7   25 1    
    19    7   26 1    
    20    8    9 1    
    21    8   27 1    
    22    8   28 1    
    23    9   10 1    
    24    9   29 1    
    25    9   30 1    
    26   10   11 2    
    27   10   12 2    
    28   10   13 1    
    29   13   31 1    
    30   14   15 1    
    31   14   32 1    
    32   14   33 1    
    33   15   16 1    
    34   15   34 1    
    35   15   35 1    
    36   16   36 1    
@<TRIPOS>SUBSTRUCTURE
     1 UNK         1 GROUP             0       ****    0 ROOT    
@<TRIPOS>MOLECULE
EPPS
36   36    1
SMALL
USER_CHARGES


@<TRIPOS>ATOM
      1 C1         -4.7476   -1.6654    4.6377 C.3       1 UNK         0.0986 
      2 C2         -6.0568   -1.9342    3.8443 C.3       1 UNK         0.1007 
      3 N3         -5.9236   -3.1364    2.9935 N.3       1 UNK        -0.7113 
      4 C4         -4.7836   -2.9217    2.0806 C.3       1 UNK         0.1007 
      5 C5         -3.4760   -2.6581    2.8766 C.3       1 UNK         0.0986 
      6 N6         -3.6070   -1.4551    3.7216 N.3       1 UNK        -0.7051 
      7 C7         -2.3493   -1.2121    4.4394 C.3       1 UNK         0.1131 
      8 C8         -2.3553    0.1392    5.1876 C.3       1 UNK        -0.1197 
      9 C9         -0.9559    0.6604    5.6080 C.3       1 UNK        -0.2881 
     10 S10        -0.0713   -0.4588    6.8349 S.3       1 UNK         1.0110 
     11 O11         1.1740    0.1804    7.2721 O.2       1 UNK        -0.4915 
     12 O12        -1.0306   -1.0016    7.8034 O.2       1 UNK        -0.4915 
     13 O13         0.3412   -1.6684    5.8029 O.3       1 UNK        -0.5020 
     14 C14        -7.1419   -3.4168    2.2084 C.3       1 UNK         0.0871 
     15 C15        -8.3531   -3.8635    3.0592 C.3       1 UNK         0.1330 
     16 O16        -8.0371   -5.0606    3.7502 O.3       1 UNK        -0.6627 
     17 H17        -4.5525   -2.4919    5.3254 H         1 UNK         0.0691 
     18 H18        -4.9027   -0.7811    5.2575 H         1 UNK         0.0691 
     19 H19        -6.3155   -1.0559    3.2477 H         1 UNK         0.0706 
     20 H20        -6.8658   -2.0642    4.5642 H         1 UNK         0.0706 
     21 H21        -4.9753   -2.0895    1.3984 H         1 UNK         0.0706 
     22 H22        -4.6387   -3.8040    1.4535 H         1 UNK         0.0706 
     23 H23        -3.2244   -3.5362    3.4767 H         1 UNK         0.0691 
     24 H24        -2.6559   -2.5264    2.1676 H         1 UNK         0.0691 
     25 H25        -2.1626   -2.0248    5.1460 H         1 UNK         0.0626 
     26 H26        -1.5030   -1.2276    3.7485 H         1 UNK         0.0626 
     27 H27        -2.9006    0.8916    4.6142 H         1 UNK         0.0883 
     28 H28        -2.9291    0.0147    6.1078 H         1 UNK         0.0883 
     29 H29        -1.0325    1.6237    6.1076 H         1 UNK         0.1467 
     30 H30        -0.2853    0.7836    4.7609 H         1 UNK         0.1467 
     31 H31         1.1644   -1.3874    5.3587 H         1 UNK         0.3980 
     32 H32        -6.9925   -4.1265    1.3911 H         1 UNK         0.0752 
     33 H33        -7.4327   -2.5017    1.6863 H         1 UNK         0.0752 
     34 H34        -8.6608   -3.0857    3.7592 H         1 UNK         0.0513 
     35 H35        -9.2144   -4.0409    2.4129 H         1 UNK         0.0513 
     36 H36        -7.1528   -4.9162    4.1263 H         1 UNK         0.4242 
@<TRIPOS>BOND
     1    1    2 1    
     2    1    6 1    
     3    1   17 1    
     4    1   18 1    
     5    2    3 1    
     6    2   19 1    
     7    2   20 1    
     8    3    4 1    
     9    3   14 1    
    10    4    5 1    
    11    4   21 1    
    12    4   22 1    
    13    5    6 1    
    14    5   23 1    
    15    5   24 1    
    16    6    7 1    
    17    7    8 1    
    18    7   25 1    
    19    7   26 1    
    20    8    9 1    
    21    8   27 1    
    22    8   28 1    
    23    9   10 1    
    24    9   29 1    
    25    9   30 1    
    26   10   11 2    
    27   10   12 2    
    28   10   13 1    
    29   13   31 1    
    30   14   15 1    
    31   14   32 1    
    32   14   33 1    
    33   15   16 1    
    34   15   34 1    
    35   15   35 1    
    36   16   36 1    
@<TRIPOS>SUBSTRUCTURE
     1 UNK         1 GROUP             0       ****    0 ROOT    
@<TRIPOS>MOLECULE
EPPS
36   36    1
SMALL
USER_CHARGES


@<TRIPOS>ATOM
      1 C1         -4.8381   -2.3411    4.9874 C.3       1 UNK         0.0986 
      2 C2         -5.5552   -3.6527    4.5625 C.3       1 UNK         0.1007 
      3 N3         -5.8609   -3.6416    3.1157 N.3       1 UNK        -0.7113 
      4 C4         -4.5896   -3.4707    2.3852 C.3       1 UNK         0.1007 
      5 C5         -3.8727   -2.1595    2.8107 C.3       1 UNK         0.0986 
      6 N6         -3.5670   -2.1716    4.2568 N.3       1 UNK        -0.7051 
      7 C7         -2.8976   -0.9418    4.6992 C.3       1 UNK         0.1131 
      8 C8         -1.4736   -0.8114    4.1145 C.3       1 UNK        -0.1197 
      9 C9         -0.5746    0.2321    4.8224 C.3       1 UNK        -0.2881 
     10 S10         0.0317   -0.3622    6.4974 S.3       1 UNK         1.0110 
     11 O11         0.8386   -1.5765    6.3325 O.2       1 UNK        -0.4915 
     12 O12        -1.0523   -0.2913    7.4824 O.2       1 UNK        -0.4915 
     13 O13         1.0603    0.8785    6.8155 O.3       1 UNK        -0.5020 
     14 C14        -6.5298   -4.8780    2.6648 C.3       1 UNK         0.0871 
     15 C15        -7.9667   -5.0533    3.2080 C.3       1 UNK         0.1330 
     16 O16        -8.7784   -3.9758    2.7713 O.3       1 UNK        -0.6627 
     17 H17        -4.6459   -2.3807    6.0617 H         1 UNK         0.0691 
     18 H18        -5.5017   -1.4877    4.8264 H         1 UNK         0.0691 
     19 H19        -6.4726   -3.7391    5.1461 H         1 UNK         0.0706 
     20 H20        -4.9395   -4.5153    4.8290 H         1 UNK         0.0706 
     21 H21        -4.7817   -3.4305    1.3109 H         1 UNK         0.0706 
     22 H22        -3.9250   -4.3235    2.5453 H         1 UNK         0.0706 
     23 H23        -2.9535   -2.0721    2.2296 H         1 UNK         0.0691 
     24 H24        -4.4873   -1.2958    2.5453 H         1 UNK         0.0691 
     25 H25        -3.4897   -0.0688    4.4125 H         1 UNK         0.0626 
     26 H26        -2.8486   -0.9048    5.7887 H         1 UNK         0.0626 
     27 H27        -0.9851   -1.7836    4.0181 H         1 UNK         0.0883 
     28 H28        -1.5833   -0.4500    3.0905 H         1 UNK         0.0883 
     29 H29        -1.0806    1.1798    4.9931 H         1 UNK         0.1467 
     30 H30         0.3270    0.4355    4.2483 H         1 UNK         0.1467 
     31 H31         0.5141    1.6155    7.1520 H         1 UNK         0.3980 
     32 H32        -5.9449   -5.7324    3.0146 H         1 UNK         0.0752 
     33 H33        -6.5341   -5.0130    1.5806 H         1 UNK         0.0752 
     34 H34        -8.3895   -5.9902    2.8415 H         1 UNK         0.0513 
     35 H35        -7.9786   -5.1264    4.2963 H         1 UNK         0.0513 
     36 H36        -8.2505   -3.1750    2.9268 H         1 UNK         0.4242 
@<TRIPOS>BOND
     1    1    2 1    
     2    1    6 1    
     3    1   17 1    
     4    1   18 1    
     5    2    3 1    
     6    2   19 1    
     7    2   20 1    
     8    3    4 1    
     9    3   14 1    
    10    4    5 1    
    11    4   21 1    
    12    4   22 1    
    13    5    6 1    
    14    5   23 1    
    15    5   24 1    
    16    6    7 1    
    17    7    8 1    
    18    7   25 1    
    19    7   26 1    
    20    8    9 1    
    21    8   27 1    
    22    8   28 1    
    23    9   10 1    
    24    9   29 1    
    25    9   30 1    
    26   10   11 2    
    27   10   12 2    
    28   10   13 1    
    29   13   31 1    
    30   14   15 1    
    31   14   32 1    
    32   14   33 1    
    33   15   16 1    
    34   15   34 1    
    35   15   35 1    
    36   16   36 1    
@<TRIPOS>SUBSTRUCTURE
     1 UNK         1 GROUP             0       ****    0 ROOT    
@<TRIPOS>MOLECULE
EPPS
36   36    1
SMALL
USER_CHARGES


@<TRIPOS>ATOM
      1 C1         -5.0876   -1.1788    4.4312 C.3       1 UNK         0.0986 
      2 C2         -6.3354   -2.0652    4.6983 C.3       1 UNK         0.1007 
      3 N3         -6.3726   -3.2196    3.7789 N.3       1 UNK        -0.7113 
      4 C4         -5.1261   -3.9921    3.9697 C.3       1 UNK         0.1007 
      5 C5         -3.8784   -3.1051    3.7028 C.3       1 UNK         0.0986 
      6 N6         -3.8419   -1.9512    4.6223 N.3       1 UNK        -0.7051 
      7 C7         -2.6391   -1.1485    4.3677 C.3       1 UNK         0.1131 
      8 C8         -2.4445   -0.0395    5.4255 C.3       1 UNK        -0.1197 
      9 C9         -1.0285    0.5867    5.4557 C.3       1 UNK        -0.2881 
     10 S10         0.2437   -0.5540    6.2347 S.3       1 UNK         1.0110 
     11 O11         0.5948   -1.6315    5.3041 O.2       1 UNK        -0.4915 
     12 O12        -0.1255   -0.8344    7.6268 O.2       1 UNK        -0.4915 
     13 O13         1.5039    0.4995    6.2572 O.3       1 UNK        -0.5020 
     14 C14        -7.5850   -4.0210    4.0379 C.3       1 UNK         0.0871 
     15 C15        -7.8387   -5.1369    2.9983 C.3       1 UNK         0.1330 
     16 O16        -8.0039   -4.5642    1.7118 O.3       1 UNK        -0.6627 
     17 H17        -5.1190   -0.3334    5.1202 H         1 UNK         0.0691 
     18 H18        -5.1389   -0.7568    3.4246 H         1 UNK         0.0691 
     19 H19        -7.2316   -1.4556    4.5647 H         1 UNK         0.0706 
     20 H20        -6.3401   -2.3914    5.7415 H         1 UNK         0.0706 
     21 H21        -5.0916   -4.8376    3.2816 H         1 UNK         0.0706 
     22 H22        -5.0732   -4.4134    4.9766 H         1 UNK         0.0706 
     23 H23        -2.9820   -3.7144    3.8367 H         1 UNK         0.0691 
     24 H24        -3.8731   -2.7780    2.6599 H         1 UNK         0.0691 
     25 H25        -1.7537   -1.7858    4.3412 H         1 UNK         0.0626 
     26 H26        -2.6932   -0.6972    3.3735 H         1 UNK         0.0626 
     27 H27        -3.1153    0.7778    5.1551 H         1 UNK         0.0883 
     28 H28        -2.7781   -0.3607    6.4148 H         1 UNK         0.0883 
     29 H29        -1.0064    1.4924    6.0582 H         1 UNK         0.1467 
     30 H30        -0.6559    0.8375    4.4650 H         1 UNK         0.1467 
     31 H31         1.8882    0.4952    5.3590 H         1 UNK         0.3980 
     32 H32        -8.4943   -3.4277    4.1608 H         1 UNK         0.0752 
     33 H33        -7.4760   -4.5045    5.0119 H         1 UNK         0.0752 
     34 H34        -7.0314   -5.8703    2.9913 H         1 UNK         0.0513 
     35 H35        -8.7418   -5.6900    3.2616 H         1 UNK         0.0513 
     36 H36        -7.2859   -3.9155    1.6234 H         1 UNK         0.4242 
@<TRIPOS>BOND
     1    1    2 1    
     2    1    6 1    
     3    1   17 1    
     4    1   18 1    
     5    2    3 1    
     6    2   19 1    
     7    2   20 1    
     8    3    4 1    
     9    3   14 1    
    10    4    5 1    
    11    4   21 1    
    12    4   22 1    
    13    5    6 1    
    14    5   23 1    
    15    5   24 1    
    16    6    7 1    
    17    7    8 1    
    18    7   25 1    
    19    7   26 1    
    20    8    9 1    
    21    8   27 1    
    22    8   28 1    
    23    9   10 1    
    24    9   29 1    
    25    9   30 1    
    26   10   11 2    
    27   10   12 2    
    28   10   13 1    
    29   13   31 1    
    30   14   15 1    
    31   14   32 1    
    32   14   33 1    
    33   15   16 1    
    34   15   34 1    
    35   15   35 1    
    36   16   36 1    
@<TRIPOS>SUBSTRUCTURE
     1 UNK         1 GROUP             0       ****    0 ROOT    
@<TRIPOS>MOLECULE
EPPS
36   36    1
SMALL
USER_CHARGES


@<TRIPOS>ATOM
      1 C1         -3.0802   -1.9823    2.5753 C.3       1 UNK         0.0986 
      2 C2         -4.3851   -2.8283    2.3972 C.3       1 UNK         0.1007 
      3 N3         -5.5128   -2.4801    3.2907 N.3       1 UNK        -0.7113 
      4 C4         -5.6612   -1.0118    3.3366 C.3       1 UNK         0.1007 
      5 C5         -4.3445   -0.2021    3.5822 C.3       1 UNK         0.0986 
      6 N6         -3.1191   -1.0233    3.6973 N.3       1 UNK        -0.7051 
      7 C7         -1.9021   -0.1979    3.7093 C.3       1 UNK         0.1131 
      8 C8         -1.8019    0.7022    4.9634 C.3       1 UNK        -0.1197 
      9 C9         -2.0478    0.0304    6.3437 C.3       1 UNK        -0.2881 
     10 S10        -1.1345   -1.5934    6.5538 S.3       1 UNK         1.0110 
     11 O11        -1.2591   -2.0656    7.9370 O.2       1 UNK        -0.4915 
     12 O12         0.1738   -1.5293    5.8935 O.2       1 UNK        -0.4915 
     13 O13        -2.1217   -2.5223    5.6270 O.3       1 UNK        -0.5020 
     14 C14        -5.4412   -3.0560    4.6497 C.3       1 UNK         0.0871 
     15 C15        -5.5635   -4.5960    4.6961 C.3       1 UNK         0.1330 
     16 O16        -6.8072   -4.9941    4.1439 O.3       1 UNK        -0.6627 
     17 H17        -2.8750   -1.4558    1.6398 H         1 UNK         0.0691 
     18 H18        -2.2412   -2.6672    2.7156 H         1 UNK         0.0691 
     19 H19        -4.1347   -3.8859    2.4780 H         1 UNK         0.0706 
     20 H20        -4.7302   -2.7119    1.3679 H         1 UNK         0.0706 
     21 H21        -6.3998   -0.7327    4.0911 H         1 UNK         0.0706 
     22 H22        -6.0983   -0.6858    2.3908 H         1 UNK         0.0706 
     23 H23        -4.2310    0.5322    2.7810 H         1 UNK         0.0691 
     24 H24        -4.4744    0.3792    4.4965 H         1 UNK         0.0691 
     25 H25        -1.0166   -0.8353    3.6544 H         1 UNK         0.0626 
     26 H26        -1.8722    0.4278    2.8132 H         1 UNK         0.0626 
     27 H27        -0.7962    1.1270    4.9662 H         1 UNK         0.0883 
     28 H28        -2.4411    1.5781    4.8414 H         1 UNK         0.0883 
     29 H29        -3.0990   -0.1859    6.5199 H         1 UNK         0.1467 
     30 H30        -1.7039    0.6647    7.1576 H         1 UNK         0.1467 
     31 H31        -2.4509   -1.9488    4.8821 H         1 UNK         0.3980 
     32 H32        -6.1509   -2.6179    5.3550 H         1 UNK         0.0752 
     33 H33        -4.4788   -2.7976    5.0879 H         1 UNK         0.0752 
     34 H34        -4.7379   -5.0833    4.1766 H         1 UNK         0.0513 
     35 H35        -5.5064   -4.9394    5.7303 H         1 UNK         0.0513 
     36 H36        -6.9033   -4.4776    3.3264 H         1 UNK         0.4242 
@<TRIPOS>BOND
     1    1    2 1    
     2    1    6 1    
     3    1   17 1    
     4    1   18 1    
     5    2    3 1    
     6    2   19 1    
     7    2   20 1    
     8    3    4 1    
     9    3   14 1    
    10    4    5 1    
    11    4   21 1    
    12    4   22 1    
    13    5    6 1    
    14    5   23 1    
    15    5   24 1    
    16    6    7 1    
    17    7    8 1    
    18    7   25 1    
    19    7   26 1    
    20    8    9 1    
    21    8   27 1    
    22    8   28 1    
    23    9   10 1    
    24    9   29 1    
    25    9   30 1    
    26   10   11 2    
    27   10   12 2    
    28   10   13 1    
    29   13   31 1    
    30   14   15 1    
    31   14   32 1    
    32   14   33 1    
    33   15   16 1    
    34   15   34 1    
    35   15   35 1    
    36   16   36 1    
@<TRIPOS>SUBSTRUCTURE
     1 UNK         1 GROUP             0       ****    0 ROOT    
@<TRIPOS>MOLECULE
EPPS
36   36    1
SMALL
USER_CHARGES


@<TRIPOS>ATOM
      1 C1         -4.0808   -0.0849    3.4952 C.3       1 UNK         0.0986 
      2 C2         -5.4282   -0.8735    3.4018 C.3       1 UNK         0.1007 
      3 N3         -5.2793   -2.3402    3.4711 N.3       1 UNK        -0.7113 
      4 C4         -4.2474   -2.7832    2.5105 C.3       1 UNK         0.1007 
      5 C5         -2.9100   -1.9752    2.5883 C.3       1 UNK         0.0986 
      6 N6         -2.8906   -0.9478    3.6491 N.3       1 UNK        -0.7051 
      7 C7         -1.6266   -0.2015    3.6317 C.3       1 UNK         0.1131 
      8 C8         -1.4825    0.7697    4.8279 C.3       1 UNK        -0.1197 
      9 C9         -1.8557    0.2465    6.2462 C.3       1 UNK        -0.2881 
     10 S10        -1.2573   -1.4956    6.6079 S.3       1 UNK         1.0110 
     11 O11        -1.4042   -1.7865    8.0383 O.2       1 UNK        -0.4915 
     12 O12         0.0082   -1.7577    5.9139 O.2       1 UNK        -0.4915 
     13 O13        -2.4462   -2.3101    5.8202 O.3       1 UNK        -0.5020 
     14 C14        -6.5845   -3.0078    3.3006 C.3       1 UNK         0.0871 
     15 C15        -6.5915   -4.5483    3.4735 C.3       1 UNK         0.1330 
     16 O16        -6.3272   -4.9449    4.8133 O.3       1 UNK        -0.6627 
     17 H17        -4.1477    0.6033    4.3391 H         1 UNK         0.0691 
     18 H18        -3.9741    0.5452    2.6090 H         1 UNK         0.0691 
     19 H19        -5.9391   -0.5912    2.4782 H         1 UNK         0.0706 
     20 H20        -6.0797   -0.5445    4.2140 H         1 UNK         0.0706 
     21 H21        -4.6362   -2.7362    1.4908 H         1 UNK         0.0706 
     22 H22        -4.0129   -3.8325    2.6950 H         1 UNK         0.0706 
     23 H23        -2.0889   -2.6769    2.7507 H         1 UNK         0.0691 
     24 H24        -2.7170   -1.5151    1.6160 H         1 UNK         0.0691 
     25 H25        -0.7827   -0.8948    3.6283 H         1 UNK         0.0626 
     26 H26        -1.5524    0.3638    2.6990 H         1 UNK         0.0626 
     27 H27        -0.4375    1.0847    4.8477 H         1 UNK         0.0883 
     28 H28        -2.0162    1.6968    4.6126 H         1 UNK         0.0883 
     29 H29        -2.9298    0.2370    6.4160 H         1 UNK         0.1467 
     30 H30        -1.4127    0.8692    7.0202 H         1 UNK         0.1467 
     31 H31        -2.6217   -1.8213    4.9671 H         1 UNK         0.3980 
     32 H32        -6.9069   -2.8151    2.2744 H         1 UNK         0.0752 
     33 H33        -7.3902   -2.5679    3.8925 H         1 UNK         0.0752 
     34 H34        -7.5761   -4.9284    3.1950 H         1 UNK         0.0513 
     35 H35        -5.8969   -5.0331    2.7863 H         1 UNK         0.0513 
     36 H36        -6.3368   -5.9139    4.8487 H         1 UNK         0.4242 
@<TRIPOS>BOND
     1    1    2 1    
     2    1    6 1    
     3    1   17 1    
     4    1   18 1    
     5    2    3 1    
     6    2   19 1    
     7    2   20 1    
     8    3    4 1    
     9    3   14 1    
    10    4    5 1    
    11    4   21 1    
    12    4   22 1    
    13    5    6 1    
    14    5   23 1    
    15    5   24 1    
    16    6    7 1    
    17    7    8 1    
    18    7   25 1    
    19    7   26 1    
    20    8    9 1    
    21    8   27 1    
    22    8   28 1    
    23    9   10 1    
    24    9   29 1    
    25    9   30 1    
    26   10   11 2    
    27   10   12 2    
    28   10   13 1    
    29   13   31 1    
    30   14   15 1    
    31   14   32 1    
    32   14   33 1    
    33   15   16 1    
    34   15   34 1    
    35   15   35 1    
    36   16   36 1    
@<TRIPOS>SUBSTRUCTURE
     1 UNK         1 GROUP             0       ****    0 ROOT    
@<TRIPOS>MOLECULE
EPPS
36   36    1
SMALL
USER_CHARGES


@<TRIPOS>ATOM
      1 C1         -3.2894   -3.3198    5.3118 C.3       1 UNK         0.0986 
      2 C2         -4.7399   -3.6571    4.8570 C.3       1 UNK         0.1007 
      3 N3         -4.8042   -3.8046    3.3897 N.3       1 UNK        -0.7113 
      4 C4         -4.3188   -2.5681    2.7461 C.3       1 UNK         0.1007 
      5 C5         -2.8693   -2.2437    3.2104 C.3       1 UNK         0.0986 
      6 N6         -2.7537   -2.0941    4.6791 N.3       1 UNK        -0.7051 
      7 C7         -3.3636   -0.8713    5.2262 C.3       1 UNK         0.1131 
      8 C8         -2.6980    0.4243    4.7036 C.3       1 UNK        -0.1197 
      9 C9         -1.1431    0.4917    4.6883 C.3       1 UNK        -0.2881 
     10 S10        -0.3340   -0.1764    6.2441 S.3       1 UNK         1.0110 
     11 O11        -1.1741    0.0981    7.4149 O.2       1 UNK        -0.4915 
     12 O12         1.0953    0.1543    6.2477 O.2       1 UNK        -0.4915 
     13 O13        -0.4651   -1.7751    5.8912 O.3       1 UNK        -0.5020 
     14 C14        -6.1237   -4.2486    2.8973 C.3       1 UNK         0.0871 
     15 C15        -7.2992   -3.2735    3.1640 C.3       1 UNK         0.1330 
     16 O16        -8.5013   -3.8180    2.6425 O.3       1 UNK        -0.6627 
     17 H17        -2.6333   -4.1626    5.0831 H         1 UNK         0.0691 
     18 H18        -3.2655   -3.2243    6.3995 H         1 UNK         0.0691 
     19 H19        -5.4250   -2.8868    5.2142 H         1 UNK         0.0706 
     20 H20        -5.0520   -4.5877    5.3352 H         1 UNK         0.0706 
     21 H21        -4.9710   -1.7199    2.9597 H         1 UNK         0.0706 
     22 H22        -4.3229   -2.6902    1.6611 H         1 UNK         0.0706 
     23 H23        -2.1982   -3.0381    2.8767 H         1 UNK         0.0691 
     24 H24        -2.5189   -1.3460    2.6994 H         1 UNK         0.0691 
     25 H25        -4.4284   -0.8427    4.9864 H         1 UNK         0.0626 
     26 H26        -3.3075   -0.8866    6.3168 H         1 UNK         0.0626 
     27 H27        -3.1000    0.6717    3.7198 H         1 UNK         0.0883 
     28 H28        -3.0660    1.2381    5.3314 H         1 UNK         0.0883 
     29 H29        -0.7975    1.5194    4.6028 H         1 UNK         0.1467 
     30 H30        -0.7109   -0.0644    3.8597 H         1 UNK         0.1467 
     31 H31        -1.3597   -1.9031    5.4702 H         1 UNK         0.3980 
     32 H32        -6.3230   -5.2066    3.3823 H         1 UNK         0.0752 
     33 H33        -6.0109   -4.4036    1.8222 H         1 UNK         0.0752 
     34 H34        -7.1240   -2.3034    2.6968 H         1 UNK         0.0513 
     35 H35        -7.4319   -3.0943    4.2318 H         1 UNK         0.0513 
     36 H36        -9.2205   -3.1914    2.8212 H         1 UNK         0.4242 
@<TRIPOS>BOND
     1    1    2 1    
     2    1    6 1    
     3    1   17 1    
     4    1   18 1    
     5    2    3 1    
     6    2   19 1    
     7    2   20 1    
     8    3    4 1    
     9    3   14 1    
    10    4    5 1    
    11    4   21 1    
    12    4   22 1    
    13    5    6 1    
    14    5   23 1    
    15    5   24 1    
    16    6    7 1    
    17    7    8 1    
    18    7   25 1    
    19    7   26 1    
    20    8    9 1    
    21    8   27 1    
    22    8   28 1    
    23    9   10 1    
    24    9   29 1    
    25    9   30 1    
    26   10   11 2    
    27   10   12 2    
    28   10   13 1    
    29   13   31 1    
    30   14   15 1    
    31   14   32 1    
    32   14   33 1    
    33   15   16 1    
    34   15   34 1    
    35   15   35 1    
    36   16   36 1    
@<TRIPOS>SUBSTRUCTURE
     1 UNK         1 GROUP             0       ****    0 ROOT    
@<TRIPOS>MOLECULE
EPPS
36   36    1
SMALL
USER_CHARGES


@<TRIPOS>ATOM
      1 C1         -4.4581   -0.7430    4.2099 C.3       1 UNK         0.0986 
      2 C2         -5.4205   -1.9662    4.3705 C.3       1 UNK         0.1007 
      3 N3         -4.7479   -3.2717    4.2344 N.3       1 UNK        -0.7113 
      4 C4         -3.9420   -3.3002    2.9982 C.3       1 UNK         0.1007 
      5 C5         -2.9888   -2.0690    2.8421 C.3       1 UNK         0.0986 
      6 N6         -3.0469   -1.1162    3.9704 N.3       1 UNK        -0.7051 
      7 C7         -2.1711    0.0368    3.7298 C.3       1 UNK         0.1131 
      8 C8         -2.0574    0.9742    4.9559 C.3       1 UNK        -0.1197 
      9 C9         -1.8395    0.3286    6.3562 C.3       1 UNK        -0.2881 
     10 S10        -0.6121   -1.0919    6.3700 S.3       1 UNK         1.0110 
     11 O11        -0.2648   -1.4374    7.7529 O.2       1 UNK        -0.4915 
     12 O12         0.4336   -0.8763    5.3641 O.2       1 UNK        -0.4915 
     13 O13        -1.6183   -2.2643    5.8128 O.3       1 UNK        -0.5020 
     14 C14        -5.6449   -4.4291    4.4190 C.3       1 UNK         0.0871 
     15 C15        -6.6861   -4.7551    3.3132 C.3       1 UNK         0.1330 
     16 O16        -7.7577   -3.8232    3.2562 O.3       1 UNK        -0.6627 
     17 H17        -4.5300   -0.1341    5.1123 H         1 UNK         0.0691 
     18 H18        -4.8196   -0.1089    3.3970 H         1 UNK         0.0691 
     19 H19        -6.2177   -1.8719    3.6320 H         1 UNK         0.0706 
     20 H20        -5.9072   -1.9126    5.3463 H         1 UNK         0.0706 
     21 H21        -4.5925   -3.3422    2.1229 H         1 UNK         0.0706 
     22 H22        -3.3470   -4.2154    2.9769 H         1 UNK         0.0706 
     23 H23        -1.9656   -2.4344    2.7312 H         1 UNK         0.0691 
     24 H24        -3.2224   -1.5560    1.9059 H         1 UNK         0.0691 
     25 H25        -1.1734   -0.3039    3.4442 H         1 UNK         0.0626 
     26 H26        -2.5485    0.6056    2.8760 H         1 UNK         0.0626 
     27 H27        -1.2181    1.6435    4.7577 H         1 UNK         0.0883 
     28 H28        -2.9132    1.6508    4.9791 H         1 UNK         0.0883 
     29 H29        -2.7603   -0.0656    6.7796 H         1 UNK         0.1467 
     30 H30        -1.4455    1.0555    7.0630 H         1 UNK         0.1467 
     31 H31        -2.1655   -1.8578    5.0827 H         1 UNK         0.3980 
     32 H32        -6.0960   -4.4807    5.4119 H         1 UNK         0.0752 
     33 H33        -4.9738   -5.2900    4.4470 H         1 UNK         0.0752 
     34 H34        -6.2129   -4.8589    2.3360 H         1 UNK         0.0513 
     35 H35        -7.1117   -5.7387    3.5203 H         1 UNK         0.0513 
     36 H36        -8.3744   -4.1143    2.5668 H         1 UNK         0.4242 
@<TRIPOS>BOND
     1    1    2 1    
     2    1    6 1    
     3    1   17 1    
     4    1   18 1    
     5    2    3 1    
     6    2   19 1    
     7    2   20 1    
     8    3    4 1    
     9    3   14 1    
    10    4    5 1    
    11    4   21 1    
    12    4   22 1    
    13    5    6 1    
    14    5   23 1    
    15    5   24 1    
    16    6    7 1    
    17    7    8 1    
    18    7   25 1    
    19    7   26 1    
    20    8    9 1    
    21    8   27 1    
    22    8   28 1    
    23    9   10 1    
    24    9   29 1    
    25    9   30 1    
    26   10   11 2    
    27   10   12 2    
    28   10   13 1    
    29   13   31 1    
    30   14   15 1    
    31   14   32 1    
    32   14   33 1    
    33   15   16 1    
    34   15   34 1    
    35   15   35 1    
    36   16   36 1    
@<TRIPOS>SUBSTRUCTURE
     1 UNK         1 GROUP             0       ****    0 ROOT    
@<TRIPOS>MOLECULE
EPPS
36   36    1
SMALL
USER_CHARGES


@<TRIPOS>ATOM
      1 C1         -4.1167   -1.3375    5.2141 C.3       1 UNK         0.0986 
      2 C2         -5.4727   -1.0236    4.5093 C.3       1 UNK         0.1007 
      3 N3         -5.8065   -2.0026    3.4547 N.3       1 UNK        -0.7113 
      4 C4         -4.6753   -2.0716    2.5041 C.3       1 UNK         0.1007 
      5 C5         -3.3207   -2.3937    3.2067 C.3       1 UNK         0.0986 
      6 N6         -2.9790   -1.4228    4.2692 N.3       1 UNK        -0.7051 
      7 C7         -2.5578   -0.1245    3.7172 C.3       1 UNK         0.1131 
      8 C8         -1.8437    0.7832    4.7450 C.3       1 UNK        -0.1197 
      9 C9         -0.4462    0.3136    5.2380 C.3       1 UNK        -0.2881 
     10 S10        -0.5049   -1.0792    6.4960 S.3       1 UNK         1.0110 
     11 O11        -1.6316   -0.8865    7.4150 O.2       1 UNK        -0.4915 
     12 O12         0.8457   -1.3457    7.0032 O.2       1 UNK        -0.4915 
     13 O13        -0.8923   -2.2985    5.4719 O.3       1 UNK        -0.5020 
     14 C14        -6.2482   -3.2978    4.0121 C.3       1 UNK         0.0871 
     15 C15        -6.8734   -4.2180    2.9392 C.3       1 UNK         0.1330 
     16 O16        -7.3552   -5.4081    3.5442 O.3       1 UNK        -0.6627 
     17 H17        -4.1971   -2.2751    5.7675 H         1 UNK         0.0691 
     18 H18        -3.9325   -0.5822    5.9785 H         1 UNK         0.0691 
     19 H19        -5.4495   -0.0195    4.0821 H         1 UNK         0.0706 
     20 H20        -6.2672   -0.9917    5.2577 H         1 UNK         0.0706 
     21 H21        -4.5961   -1.1217    1.9718 H         1 UNK         0.0706 
     22 H22        -4.8615   -2.8078    1.7222 H         1 UNK         0.0706 
     23 H23        -3.3471   -3.4014    3.6257 H         1 UNK         0.0691 
     24 H24        -2.5274   -2.4238    2.4567 H         1 UNK         0.0691 
     25 H25        -1.8514   -0.3060    2.9035 H         1 UNK         0.0626 
     26 H26        -3.3945    0.4106    3.2636 H         1 UNK         0.0626 
     27 H27        -1.7011    1.7460    4.2512 H         1 UNK         0.0883 
     28 H28        -2.4966    1.0174    5.5864 H         1 UNK         0.0883 
     29 H29         0.0789    1.1208    5.7440 H         1 UNK         0.1467 
     30 H30         0.1893   -0.0360    4.4274 H         1 UNK         0.1467 
     31 H31        -1.7300   -2.0045    5.0137 H         1 UNK         0.3980 
     32 H32        -7.0139   -3.0763    4.7589 H         1 UNK         0.0752 
     33 H33        -5.3909   -3.7897    4.4747 H         1 UNK         0.0752 
     34 H34        -6.1481   -4.4920    2.1724 H         1 UNK         0.0513 
     35 H35        -7.6967   -3.7108    2.4321 H         1 UNK         0.0513 
     36 H36        -7.7541   -5.9585    2.8516 H         1 UNK         0.4242 
@<TRIPOS>BOND
     1    1    2 1    
     2    1    6 1    
     3    1   17 1    
     4    1   18 1    
     5    2    3 1    
     6    2   19 1    
     7    2   20 1    
     8    3    4 1    
     9    3   14 1    
    10    4    5 1    
    11    4   21 1    
    12    4   22 1    
    13    5    6 1    
    14    5   23 1    
    15    5   24 1    
    16    6    7 1    
    17    7    8 1    
    18    7   25 1    
    19    7   26 1    
    20    8    9 1    
    21    8   27 1    
    22    8   28 1    
    23    9   10 1    
    24    9   29 1    
    25    9   30 1    
    26   10   11 2    
    27   10   12 2    
    28   10   13 1    
    29   13   31 1    
    30   14   15 1    
    31   14   32 1    
    32   14   33 1    
    33   15   16 1    
    34   15   34 1    
    35   15   35 1    
    36   16   36 1    
@<TRIPOS>SUBSTRUCTURE
     1 UNK         1 GROUP             0       ****    0 ROOT    
@<TRIPOS>MOLECULE
EPPS
36   36    1
SMALL
USER_CHARGES


@<TRIPOS>ATOM
      1 C1         -5.0135   -2.0463    5.4969 C.3       1 UNK         0.0986 
      2 C2         -5.7640   -3.3785    5.2230 C.3       1 UNK         0.1007 
      3 N3         -6.1637   -3.4783    3.8054 N.3       1 UNK        -0.7113 
      4 C4         -4.9399   -3.3822    2.9807 C.3       1 UNK         0.1007 
      5 C5         -4.1854   -2.0517    3.2567 C.3       1 UNK         0.0986 
      6 N6         -3.7897   -1.9525    4.6773 N.3       1 UNK        -0.7051 
      7 C7         -3.0831   -0.7008    4.9778 C.3       1 UNK         0.1131 
      8 C8         -1.6985   -0.6340    4.2955 C.3       1 UNK        -0.1197 
      9 C9         -0.7445    0.4461    4.8669 C.3       1 UNK        -0.2881 
     10 S10         0.1127   -0.0921    6.4521 S.3       1 UNK         1.0110 
     11 O11        -0.8665   -0.5872    7.4258 O.2       1 UNK        -0.4915 
     12 O12         1.1152    0.9101    6.8282 O.2       1 UNK        -0.4915 
     13 O13         0.9228   -1.3893    5.8509 O.3       1 UNK        -0.5020 
     14 C14        -6.9016   -4.7379    3.5858 C.3       1 UNK         0.0871 
     15 C15        -7.5494   -4.8555    2.1869 C.3       1 UNK         0.1330 
     16 O16        -8.4850   -3.8061    2.0026 O.3       1 UNK        -0.6627 
     17 H17        -4.7544   -2.0029    6.5569 H         1 UNK         0.0691 
     18 H18        -5.6797   -1.2004    5.3093 H         1 UNK         0.0691 
     19 H19        -6.6488   -3.4184    5.8618 H         1 UNK         0.0706 
     20 H20        -5.1361   -4.2236    5.5166 H         1 UNK         0.0706 
     21 H21        -5.1915   -3.4125    1.9199 H         1 UNK         0.0706 
     22 H22        -4.2747   -4.2300    3.1625 H         1 UNK         0.0706 
     23 H23        -3.3032   -2.0231    2.6155 H         1 UNK         0.0691 
     24 H24        -4.8071   -1.2029    2.9617 H         1 UNK         0.0691 
     25 H25        -3.6859    0.1531    4.6575 H         1 UNK         0.0626 
     26 H26        -2.9665   -0.5734    6.0552 H         1 UNK         0.0626 
     27 H27        -1.2297   -1.6182    4.2284 H         1 UNK         0.0883 
     28 H28        -1.8763   -0.3399    3.2597 H         1 UNK         0.0883 
     29 H29        -1.2606    1.3728    5.1086 H         1 UNK         0.1467 
     30 H30         0.0563    0.6847    4.1705 H         1 UNK         0.1467 
     31 H31         1.7061   -1.0386    5.3847 H         1 UNK         0.3980 
     32 H32        -7.6509   -4.9552    4.3508 H         1 UNK         0.0752 
     33 H33        -6.2000   -5.5696    3.6886 H         1 UNK         0.0752 
     34 H34        -6.7996   -4.8449    1.3948 H         1 UNK         0.0513 
     35 H35        -8.0647   -5.8132    2.0968 H         1 UNK         0.0513 
     36 H36        -8.0344   -3.0013    2.3080 H         1 UNK         0.4242 
@<TRIPOS>BOND
     1    1    2 1    
     2    1    6 1    
     3    1   17 1    
     4    1   18 1    
     5    2    3 1    
     6    2   19 1    
     7    2   20 1    
     8    3    4 1    
     9    3   14 1    
    10    4    5 1    
    11    4   21 1    
    12    4   22 1    
    13    5    6 1    
    14    5   23 1    
    15    5   24 1    
    16    6    7 1    
    17    7    8 1    
    18    7   25 1    
    19    7   26 1    
    20    8    9 1    
    21    8   27 1    
    22    8   28 1    
    23    9   10 1    
    24    9   29 1    
    25    9   30 1    
    26   10   11 2    
    27   10   12 2    
    28   10   13 1    
    29   13   31 1    
    30   14   15 1    
    31   14   32 1    
    32   14   33 1    
    33   15   16 1    
    34   15   34 1    
    35   15   35 1    
    36   16   36 1    
@<TRIPOS>SUBSTRUCTURE
     1 UNK         1 GROUP             0       ****    0 ROOT    
@<TRIPOS>MOLECULE
EPPS
36   36    1
SMALL
USER_CHARGES


@<TRIPOS>ATOM
      1 C1         -5.3372   -0.9013    3.5785 C.3       1 UNK         0.0986 
      2 C2         -6.6799   -1.6426    3.8248 C.3       1 UNK         0.1007 
      3 N3         -6.5569   -3.0782    3.5041 N.3       1 UNK        -0.7113 
      4 C4         -5.4808   -3.6413    4.3480 C.3       1 UNK         0.1007 
      5 C5         -4.1374   -2.8975    4.1072 C.3       1 UNK         0.0986 
      6 N6         -4.2638   -1.4594    4.4240 N.3       1 UNK        -0.7051 
      7 C7         -3.0154   -0.7216    4.1929 C.3       1 UNK         0.1131 
      8 C8         -1.9063   -1.1217    5.1871 C.3       1 UNK        -0.1197 
      9 C9         -0.7238   -0.1259    5.2023 C.3       1 UNK        -0.2881 
     10 S10         0.6228   -0.6848    6.3809 S.3       1 UNK         1.0110 
     11 O11         1.2463   -1.9130    5.8750 O.2       1 UNK        -0.4915 
     12 O12         0.1472   -0.5826    7.7646 O.2       1 UNK        -0.4915 
     13 O13         1.6745    0.5516    6.1281 O.3       1 UNK        -0.5020 
     14 C14        -7.8559   -3.7469    3.7155 C.3       1 UNK         0.0871 
     15 C15        -7.9037   -5.2082    3.2128 C.3       1 UNK         0.1330 
     16 O16        -7.6585   -5.2426    1.8167 O.3       1 UNK        -0.6627 
     17 H17        -5.4763    0.1577    3.8057 H         1 UNK         0.0691 
     18 H18        -5.0734   -0.9555    2.5193 H         1 UNK         0.0691 
     19 H19        -7.4502   -1.1869    3.1990 H         1 UNK         0.0706 
     20 H20        -6.9994   -1.4950    4.8596 H         1 UNK         0.0706 
     21 H21        -5.3275   -4.6961    4.1170 H         1 UNK         0.0706 
     22 H22        -5.7455   -3.5946    5.4072 H         1 UNK         0.0706 
     23 H23        -3.3777   -3.3588    4.7398 H         1 UNK         0.0691 
     24 H24        -3.8092   -3.0455    3.0755 H         1 UNK         0.0691 
     25 H25        -2.6648   -0.8811    3.1699 H         1 UNK         0.0626 
     26 H26        -3.1845    0.3552    4.2716 H         1 UNK         0.0626 
     27 H27        -2.3165   -1.2859    6.1862 H         1 UNK         0.0883 
     28 H28        -1.4987   -2.0835    4.8704 H         1 UNK         0.0883 
     29 H29        -1.0223    0.8660    5.5338 H         1 UNK         0.1467 
     30 H30        -0.2442   -0.0326    4.2301 H         1 UNK         0.1467 
     31 H31         1.3587    1.3020    6.6683 H         1 UNK         0.3980 
     32 H32        -8.7110   -3.1980    3.3136 H         1 UNK         0.0752 
     33 H33        -8.0618   -3.7667    4.7888 H         1 UNK         0.0752 
     34 H34        -7.1896   -5.8390    3.7436 H         1 UNK         0.0513 
     35 H35        -8.8870   -5.6368    3.4134 H         1 UNK         0.0513 
     36 H36        -6.8923   -4.6624    1.6742 H         1 UNK         0.4242 
@<TRIPOS>BOND
     1    1    2 1    
     2    1    6 1    
     3    1   17 1    
     4    1   18 1    
     5    2    3 1    
     6    2   19 1    
     7    2   20 1    
     8    3    4 1    
     9    3   14 1    
    10    4    5 1    
    11    4   21 1    
    12    4   22 1    
    13    5    6 1    
    14    5   23 1    
    15    5   24 1    
    16    6    7 1    
    17    7    8 1    
    18    7   25 1    
    19    7   26 1    
    20    8    9 1    
    21    8   27 1    
    22    8   28 1    
    23    9   10 1    
    24    9   29 1    
    25    9   30 1    
    26   10   11 2    
    27   10   12 2    
    28   10   13 1    
    29   13   31 1    
    30   14   15 1    
    31   14   32 1    
    32   14   33 1    
    33   15   16 1    
    34   15   34 1    
    35   15   35 1    
    36   16   36 1    
@<TRIPOS>SUBSTRUCTURE
     1 UNK         1 GROUP             0       ****    0 ROOT    
@<TRIPOS>MOLECULE
EPPS
36   36    1
SMALL
USER_CHARGES


@<TRIPOS>ATOM
      1 C1         -5.3245   -0.9538    4.0355 C.3       1 UNK         0.0986 
      2 C2         -6.1094   -1.8699    3.0554 C.3       1 UNK         0.1007 
      3 N3         -5.7534   -3.2905    3.2615 N.3       1 UNK        -0.7113 
      4 C4         -4.2957   -3.4255    3.0702 C.3       1 UNK         0.1007 
      5 C5         -3.5186   -2.5075    4.0537 C.3       1 UNK         0.0986 
      6 N6         -3.8684   -1.0880    3.8325 N.3       1 UNK        -0.7051 
      7 C7         -3.1468   -0.2066    4.7578 C.3       1 UNK         0.1131 
      8 C8         -1.6753   -0.0013    4.3323 C.3       1 UNK        -0.1197 
      9 C9         -0.7562    0.5658    5.4431 C.3       1 UNK        -0.2881 
     10 S10        -0.1935   -0.7507    6.6616 S.3       1 UNK         1.0110 
     11 O11         0.7905   -0.1745    7.5839 O.2       1 UNK        -0.4915 
     12 O12        -1.3423   -1.5163    7.1575 O.2       1 UNK        -0.4915 
     13 O13         0.6273   -1.7069    5.6072 O.3       1 UNK        -0.5020 
     14 C14        -6.4616   -4.1960    2.3354 C.3       1 UNK         0.0871 
     15 C15        -7.9841   -4.2929    2.5869 C.3       1 UNK         0.1330 
     16 O16        -8.2229   -4.7883    3.8938 O.3       1 UNK        -0.6627 
     17 H17        -5.6028   -1.1878    5.0662 H         1 UNK         0.0691 
     18 H18        -5.6289    0.0808    3.8639 H         1 UNK         0.0691 
     19 H19        -5.9180   -1.5608    2.0249 H         1 UNK         0.0706 
     20 H20        -7.1748   -1.7144    3.2293 H         1 UNK         0.0706 
     21 H21        -4.0092   -3.1917    2.0417 H         1 UNK         0.0706 
     22 H22        -3.9928   -4.4601    3.2446 H         1 UNK         0.0706 
     23 H23        -3.7285   -2.8071    5.0836 H         1 UNK         0.0691 
     24 H24        -2.4510   -2.6725    3.9049 H         1 UNK         0.0691 
     25 H25        -3.6197    0.7789    4.7505 H         1 UNK         0.0626 
     26 H26        -3.2294   -0.5463    5.7921 H         1 UNK         0.0626 
     27 H27        -1.2415   -0.8681    3.8325 H         1 UNK         0.0883 
     28 H28        -1.6975    0.7616    3.5516 H         1 UNK         0.0883 
     29 H29        -1.2448    1.3343    6.0382 H         1 UNK         0.1467 
     30 H30         0.1561    0.9929    5.0327 H         1 UNK         0.1467 
     31 H31         1.4961   -1.2844    5.4639 H         1 UNK         0.3980 
     32 H32        -6.0386   -5.2022    2.2846 H         1 UNK         0.0752 
     33 H33        -6.3248   -3.8224    1.3175 H         1 UNK         0.0752 
     34 H34        -8.4765   -3.3300    2.4453 H         1 UNK         0.0513 
     35 H35        -8.4372   -4.9694    1.8603 H         1 UNK         0.0513 
     36 H36        -7.6236   -4.2888    4.4730 H         1 UNK         0.4242 
@<TRIPOS>BOND
     1    1    2 1    
     2    1    6 1    
     3    1   17 1    
     4    1   18 1    
     5    2    3 1    
     6    2   19 1    
     7    2   20 1    
     8    3    4 1    
     9    3   14 1    
    10    4    5 1    
    11    4   21 1    
    12    4   22 1    
    13    5    6 1    
    14    5   23 1    
    15    5   24 1    
    16    6    7 1    
    17    7    8 1    
    18    7   25 1    
    19    7   26 1    
    20    8    9 1    
    21    8   27 1    
    22    8   28 1    
    23    9   10 1    
    24    9   29 1    
    25    9   30 1    
    26   10   11 2    
    27   10   12 2    
    28   10   13 1    
    29   13   31 1    
    30   14   15 1    
    31   14   32 1    
    32   14   33 1    
    33   15   16 1    
    34   15   34 1    
    35   15   35 1    
    36   16   36 1    
@<TRIPOS>SUBSTRUCTURE
     1 UNK         1 GROUP             0       ****    0 ROOT    
@<TRIPOS>MOLECULE
EPPS
36   36    1
SMALL
USER_CHARGES


@<TRIPOS>ATOM
      1 C1         -4.9174   -1.0709    5.6034 C.3       1 UNK         0.0986 
      2 C2         -5.6719   -2.4278    5.5648 C.3       1 UNK         0.1007 
      3 N3         -6.2047   -2.7009    4.2146 N.3       1 UNK        -0.7113 
      4 C4         -5.0658   -2.7036    3.2737 C.3       1 UNK         0.1007 
      5 C5         -4.2936   -1.3550    3.3173 C.3       1 UNK         0.0986 
      6 N6         -3.7729   -1.0814    4.6727 N.3       1 UNK        -0.7051 
      7 C7         -3.0540    0.1983    4.7494 C.3       1 UNK         0.1131 
      8 C8         -1.7182    0.1842    3.9705 C.3       1 UNK        -0.1197 
      9 C9         -0.7111   -0.9267    4.3699 C.3       1 UNK        -0.2881 
     10 S10        -0.0406   -0.7043    6.1092 S.3       1 UNK         1.0110 
     11 O11        -1.0590   -1.0592    7.1025 O.2       1 UNK        -0.4915 
     12 O12         0.7018    0.5584    6.1952 O.2       1 UNK        -0.4915 
     13 O13         1.0582   -1.9250    6.0819 O.3       1 UNK        -0.5020 
     14 C14        -6.9335   -3.9844    4.2195 C.3       1 UNK         0.0871 
     15 C15        -7.7507   -4.3166    2.9448 C.3       1 UNK         0.1330 
     16 O16        -6.9514   -4.7604    1.8555 O.3       1 UNK        -0.6627 
     17 H17        -4.5653   -0.8960    6.6222 H         1 UNK         0.0691 
     18 H18        -5.6072   -0.2552    5.3722 H         1 UNK         0.0691 
     19 H19        -6.4892   -2.3917    6.2882 H         1 UNK         0.0706 
     20 H20        -5.0062   -3.2292    5.8952 H         1 UNK         0.0706 
     21 H21        -5.4219   -2.8434    2.2531 H         1 UNK         0.0706 
     22 H22        -4.3858   -3.5336    3.4801 H         1 UNK         0.0706 
     23 H23        -3.4720   -1.4152    2.6025 H         1 UNK         0.0691 
     24 H24        -4.9407   -0.5443    2.9738 H         1 UNK         0.0691 
     25 H25        -3.6862    1.0134    4.3877 H         1 UNK         0.0626 
     26 H26        -2.8377    0.4248    5.7956 H         1 UNK         0.0626 
     27 H27        -1.9167    0.1575    2.8984 H         1 UNK         0.0883 
     28 H28        -1.2404    1.1552    4.1138 H         1 UNK         0.0883 
     29 H29         0.1596   -0.9330    3.7183 H         1 UNK         0.1467 
     30 H30        -1.1583   -1.9177    4.3395 H         1 UNK         0.1467 
     31 H31         0.5629   -2.7499    6.2517 H         1 UNK         0.3980 
     32 H32        -7.6934   -3.8770    4.9972 H         1 UNK         0.0752 
     33 H33        -6.3559   -4.8467    4.5603 H         1 UNK         0.0752 
     34 H34        -8.4643   -5.1083    3.1804 H         1 UNK         0.0513 
     35 H35        -8.3590   -3.4599    2.6480 H         1 UNK         0.0513 
     36 H36        -7.5402   -4.9510    1.1089 H         1 UNK         0.4242 
@<TRIPOS>BOND
     1    1    2 1    
     2    1    6 1    
     3    1   17 1    
     4    1   18 1    
     5    2    3 1    
     6    2   19 1    
     7    2   20 1    
     8    3    4 1    
     9    3   14 1    
    10    4    5 1    
    11    4   21 1    
    12    4   22 1    
    13    5    6 1    
    14    5   23 1    
    15    5   24 1    
    16    6    7 1    
    17    7    8 1    
    18    7   25 1    
    19    7   26 1    
    20    8    9 1    
    21    8   27 1    
    22    8   28 1    
    23    9   10 1    
    24    9   29 1    
    25    9   30 1    
    26   10   11 2    
    27   10   12 2    
    28   10   13 1    
    29   13   31 1    
    30   14   15 1    
    31   14   32 1    
    32   14   33 1    
    33   15   16 1    
    34   15   34 1    
    35   15   35 1    
    36   16   36 1    
@<TRIPOS>SUBSTRUCTURE
     1 UNK         1 GROUP             0       ****    0 ROOT    
@<TRIPOS>MOLECULE
EPPS
36   36    1
SMALL
USER_CHARGES


@<TRIPOS>ATOM
      1 C1         -5.1205   -1.2304    3.5814 C.3       1 UNK         0.0986 
      2 C2         -6.0066   -2.4907    3.7862 C.3       1 UNK         0.1007 
      3 N3         -5.4840   -3.6403    3.0195 N.3       1 UNK        -0.7113 
      4 C4         -4.0945   -3.8801    3.4593 C.3       1 UNK         0.1007 
      5 C5         -3.2111   -2.6205    3.2440 C.3       1 UNK         0.0986 
      6 N6         -3.7327   -1.4764    4.0192 N.3       1 UNK        -0.7051 
      7 C7         -2.9282   -0.2598    3.8340 C.3       1 UNK         0.1131 
      8 C8         -1.5188   -0.3651    4.4571 C.3       1 UNK        -0.1197 
      9 C9         -1.5108   -0.6716    5.9763 C.3       1 UNK        -0.2881 
     10 S10         0.2305   -0.7507    6.6683 S.3       1 UNK         1.0110 
     11 O11         1.0716   -1.5996    5.8166 O.2       1 UNK        -0.4915 
     12 O12         0.1751   -0.9449    8.1210 O.2       1 UNK        -0.4915 
     13 O13         0.6602    0.8124    6.3992 O.3       1 UNK        -0.5020 
     14 C14        -6.2857   -4.8631    3.2218 C.3       1 UNK         0.0871 
     15 C15        -7.7097   -4.8622    2.6091 C.3       1 UNK         0.1330 
     16 O16        -8.6517   -4.1062    3.3596 O.3       1 UNK        -0.6627 
     17 H17        -5.5492   -0.4067    4.1560 H         1 UNK         0.0691 
     18 H18        -5.1538   -0.9219    2.5335 H         1 UNK         0.0691 
     19 H19        -7.0130   -2.2409    3.4505 H         1 UNK         0.0706 
     20 H20        -6.0852   -2.7281    4.8498 H         1 UNK         0.0706 
     21 H21        -3.6625   -4.7081    2.8934 H         1 UNK         0.0706 
     22 H22        -4.0605   -4.1781    4.5104 H         1 UNK         0.0706 
     23 H23        -2.1960   -2.8626    3.5612 H         1 UNK         0.0691 
     24 H24        -3.1524   -2.3817    2.1793 H         1 UNK         0.0691 
     25 H25        -2.8506   -0.0060    2.7737 H         1 UNK         0.0626 
     26 H26        -3.4411    0.5774    4.3136 H         1 UNK         0.0626 
     27 H27        -0.9097   -1.0789    3.9006 H         1 UNK         0.0883 
     28 H28        -1.0186    0.5905    4.2895 H         1 UNK         0.0883 
     29 H29        -1.9590   -1.6380    6.1961 H         1 UNK         0.1467 
     30 H30        -2.0360    0.0849    6.5541 H         1 UNK         0.1467 
     31 H31         0.2646    1.3390    7.1205 H         1 UNK         0.3980 
     32 H32        -6.2899   -5.2538    4.2420 H         1 UNK         0.0752 
     33 H33        -5.7609   -5.6424    2.6641 H         1 UNK         0.0752 
     34 H34        -7.6792   -4.5156    1.5742 H         1 UNK         0.0513 
     35 H35        -8.0713   -5.8908    2.5575 H         1 UNK         0.0513 
     36 H36        -9.5100   -4.1661    2.9122 H         1 UNK         0.4242 
@<TRIPOS>BOND
     1    1    2 1    
     2    1    6 1    
     3    1   17 1    
     4    1   18 1    
     5    2    3 1    
     6    2   19 1    
     7    2   20 1    
     8    3    4 1    
     9    3   14 1    
    10    4    5 1    
    11    4   21 1    
    12    4   22 1    
    13    5    6 1    
    14    5   23 1    
    15    5   24 1    
    16    6    7 1    
    17    7    8 1    
    18    7   25 1    
    19    7   26 1    
    20    8    9 1    
    21    8   27 1    
    22    8   28 1    
    23    9   10 1    
    24    9   29 1    
    25    9   30 1    
    26   10   11 2    
    27   10   12 2    
    28   10   13 1    
    29   13   31 1    
    30   14   15 1    
    31   14   32 1    
    32   14   33 1    
    33   15   16 1    
    34   15   34 1    
    35   15   35 1    
    36   16   36 1    
@<TRIPOS>SUBSTRUCTURE
     1 UNK         1 GROUP             0       ****    0 ROOT    
@<TRIPOS>MOLECULE
EPPS
36   36    1
SMALL
USER_CHARGES


@<TRIPOS>ATOM
      1 C1         -4.4646   -1.4035    4.1890 C.3       1 UNK         0.0986 
      2 C2         -5.1352   -2.7791    3.9149 C.3       1 UNK         0.1007 
      3 N3         -5.5800   -2.8890    2.5104 N.3       1 UNK        -0.7113 
      4 C4         -4.3995   -2.6823    1.6471 C.3       1 UNK         0.1007 
      5 C5         -3.7465   -1.2992    1.9162 C.3       1 UNK         0.0986 
      6 N6         -3.2904   -1.1982    3.3159 N.3       1 UNK        -0.7051 
      7 C7         -2.6484    0.1056    3.5385 C.3       1 UNK         0.1131 
      8 C8         -1.9584    0.2132    4.9161 C.3       1 UNK        -0.1197 
      9 C9         -0.8673   -0.8572    5.1717 C.3       1 UNK        -0.2881 
     10 S10        -0.0549   -0.6450    6.8485 S.3       1 UNK         1.0110 
     11 O11         0.3337    0.7565    7.0444 O.2       1 UNK        -0.4915 
     12 O12         0.8948   -1.7389    7.0780 O.2       1 UNK        -0.4915 
     13 O13        -1.3731   -0.9360    7.7853 O.3       1 UNK        -0.5020 
     14 C14        -6.1873   -4.2010    2.2129 C.3       1 UNK         0.0871 
     15 C15        -7.5619   -4.4885    2.8695 C.3       1 UNK         0.1330 
     16 O16        -7.4743   -4.8286    4.2475 O.3       1 UNK        -0.6627 
     17 H17        -4.1643   -1.3796    5.2373 H         1 UNK         0.0691 
     18 H18        -5.1950   -0.6010    4.0605 H         1 UNK         0.0691 
     19 H19        -5.9889   -2.8659    4.5870 H         1 UNK         0.0706 
     20 H20        -4.4517   -3.5904    4.1768 H         1 UNK         0.0706 
     21 H21        -4.6928   -2.7296    0.5963 H         1 UNK         0.0706 
     22 H22        -3.6603   -3.4739    1.7942 H         1 UNK         0.0706 
     23 H23        -2.8985   -1.1757    1.2393 H         1 UNK         0.0691 
     24 H24        -4.4525   -0.5013    1.6723 H         1 UNK         0.0691 
     25 H25        -1.8841    0.2567    2.7724 H         1 UNK         0.0626 
     26 H26        -3.3701    0.9174    3.4167 H         1 UNK         0.0626 
     27 H27        -1.4966    1.2009    4.9699 H         1 UNK         0.0883 
     28 H28        -2.7018    0.2295    5.7143 H         1 UNK         0.0883 
     29 H29        -0.0605   -0.7989    4.4449 H         1 UNK         0.1467 
     30 H30        -1.2700   -1.8672    5.1512 H         1 UNK         0.1467 
     31 H31        -1.4773   -1.9061    7.8265 H         1 UNK         0.3980 
     32 H32        -5.5145   -5.0570    2.3033 H         1 UNK         0.0752 
     33 H33        -6.4079   -4.1759    1.1431 H         1 UNK         0.0752 
     34 H34        -8.2369   -3.6423    2.7269 H         1 UNK         0.0513 
     35 H35        -8.0333   -5.3237    2.3481 H         1 UNK         0.0513 
     36 H36        -8.3719   -4.9988    4.5728 H         1 UNK         0.4242 
@<TRIPOS>BOND
     1    1    2 1    
     2    1    6 1    
     3    1   17 1    
     4    1   18 1    
     5    2    3 1    
     6    2   19 1    
     7    2   20 1    
     8    3    4 1    
     9    3   14 1    
    10    4    5 1    
    11    4   21 1    
    12    4   22 1    
    13    5    6 1    
    14    5   23 1    
    15    5   24 1    
    16    6    7 1    
    17    7    8 1    
    18    7   25 1    
    19    7   26 1    
    20    8    9 1    
    21    8   27 1    
    22    8   28 1    
    23    9   10 1    
    24    9   29 1    
    25    9   30 1    
    26   10   11 2    
    27   10   12 2    
    28   10   13 1    
    29   13   31 1    
    30   14   15 1    
    31   14   32 1    
    32   14   33 1    
    33   15   16 1    
    34   15   34 1    
    35   15   35 1    
    36   16   36 1    
@<TRIPOS>SUBSTRUCTURE
     1 UNK         1 GROUP             0       ****    0 ROOT    
@<TRIPOS>MOLECULE
EPPS
36   36    1
SMALL
USER_CHARGES


@<TRIPOS>ATOM
      1 C1         -5.2440   -0.9717    3.8431 C.3       1 UNK         0.0986 
      2 C2         -6.0274   -2.3111    3.9324 C.3       1 UNK         0.1007 
      3 N3         -5.4650   -3.3200    3.0114 N.3       1 UNK        -0.7113 
      4 C4         -4.0414   -3.5032    3.3600 C.3       1 UNK         0.1007 
      5 C5         -3.2613   -2.1635    3.2596 C.3       1 UNK         0.0986 
      6 N6         -3.8215   -1.1605    4.1882 N.3       1 UNK        -0.7051 
      7 C7         -3.1160    0.1273    4.1144 C.3       1 UNK         0.1131 
      8 C8         -1.6727    0.0592    4.6598 C.3       1 UNK        -0.1197 
      9 C9         -1.5650   -0.4122    6.1321 C.3       1 UNK        -0.2881 
     10 S10         0.2116   -0.4403    6.7317 S.3       1 UNK         1.0110 
     11 O11         0.2643   -0.9867    8.0917 O.2       1 UNK        -0.4915 
     12 O12         0.8767    0.8226    6.3905 O.2       1 UNK        -0.4915 
     13 O13         0.7827   -1.5988    5.7158 O.3       1 UNK        -0.5020 
     14 C14        -6.1674   -4.6152    3.0986 C.3       1 UNK         0.0871 
     15 C15        -7.6168   -4.6506    2.5497 C.3       1 UNK         0.1330 
     16 O16        -8.5710   -4.0610    3.4237 O.3       1 UNK        -0.6627 
     17 H17        -5.6996   -0.2559    4.5304 H         1 UNK         0.0691 
     18 H18        -5.3531   -0.5463    2.8422 H         1 UNK         0.0691 
     19 H19        -7.0649   -2.1011    3.6725 H         1 UNK         0.0706 
     20 H20        -6.0341   -2.6764    4.9621 H         1 UNK         0.0706 
     21 H21        -3.5816   -4.2245    2.6812 H         1 UNK         0.0706 
     22 H22        -3.9329   -3.9178    4.3655 H         1 UNK         0.0706 
     23 H23        -2.2166   -2.3627    3.5016 H         1 UNK         0.0691 
     24 H24        -3.2747   -1.7985    2.2297 H         1 UNK         0.0691 
     25 H25        -3.1113    0.5067    3.0894 H         1 UNK         0.0626 
     26 H26        -3.6617    0.8621    4.7114 H         1 UNK         0.0626 
     27 H27        -1.0433   -0.5377    3.9984 H         1 UNK         0.0883 
     28 H28        -1.2511    1.0634    4.5841 H         1 UNK         0.0883 
     29 H29        -1.9516   -1.4192    6.2702 H         1 UNK         0.1467 
     30 H30        -2.0943    0.2507    6.8125 H         1 UNK         0.1467 
     31 H31         0.5159   -2.4583    6.0950 H         1 UNK         0.3980 
     32 H32        -6.0932   -5.1212    4.0639 H         1 UNK         0.0752 
     33 H33        -5.6177   -5.2823    2.4303 H         1 UNK         0.0752 
     34 H34        -7.6624   -4.1840    1.5636 H         1 UNK         0.0513 
     35 H35        -7.9074   -5.6905    2.3896 H         1 UNK         0.0513 
     36 H36        -9.4442   -4.1324    3.0076 H         1 UNK         0.4242 
@<TRIPOS>BOND
     1    1    2 1    
     2    1    6 1    
     3    1   17 1    
     4    1   18 1    
     5    2    3 1    
     6    2   19 1    
     7    2   20 1    
     8    3    4 1    
     9    3   14 1    
    10    4    5 1    
    11    4   21 1    
    12    4   22 1    
    13    5    6 1    
    14    5   23 1    
    15    5   24 1    
    16    6    7 1    
    17    7    8 1    
    18    7   25 1    
    19    7   26 1    
    20    8    9 1    
    21    8   27 1    
    22    8   28 1    
    23    9   10 1    
    24    9   29 1    
    25    9   30 1    
    26   10   11 2    
    27   10   12 2    
    28   10   13 1    
    29   13   31 1    
    30   14   15 1    
    31   14   32 1    
    32   14   33 1    
    33   15   16 1    
    34   15   34 1    
    35   15   35 1    
    36   16   36 1    
@<TRIPOS>SUBSTRUCTURE
     1 UNK         1 GROUP             0       ****    0 ROOT    
@<TRIPOS>MOLECULE
EPPS
36   36    1
SMALL
USER_CHARGES


@<TRIPOS>ATOM
      1 C1         -4.6392   -2.5162    5.0786 C.3       1 UNK         0.0986 
      2 C2         -6.1021   -2.6248    4.5651 C.3       1 UNK         0.1007 
      3 N3         -6.1321   -2.8971    3.1119 N.3       1 UNK        -0.7113 
      4 C4         -5.4051   -1.8073    2.4315 C.3       1 UNK         0.1007 
      5 C5         -3.9436   -1.7054    2.9491 C.3       1 UNK         0.0986 
      6 N6         -3.9194   -1.4203    4.3997 N.3       1 UNK        -0.7051 
      7 C7         -2.5480   -1.3254    4.9151 C.3       1 UNK         0.1131 
      8 C8         -1.8807    0.0211    4.5565 C.3       1 UNK        -0.1197 
      9 C9         -0.3437    0.0639    4.7639 C.3       1 UNK        -0.2881 
     10 S10         0.1870   -0.1775    6.5531 S.3       1 UNK         1.0110 
     11 O11         1.6364    0.0157    6.6647 O.2       1 UNK        -0.4915 
     12 O12        -0.7452    0.5113    7.4529 O.2       1 UNK        -0.4915 
     13 O13        -0.0968   -1.7911    6.6727 O.3       1 UNK        -0.5020 
     14 C14        -7.5051   -2.9873    2.5770 C.3       1 UNK         0.0871 
     15 C15        -8.2945   -4.2233    3.0667 C.3       1 UNK         0.1330 
     16 O16        -7.6287   -5.4080    2.6622 O.3       1 UNK        -0.6627 
     17 H17        -4.1254   -3.4710    4.9404 H         1 UNK         0.0691 
     18 H18        -4.6617   -2.3345    6.1552 H         1 UNK         0.0691 
     19 H19        -6.6489   -1.7098    4.8064 H         1 UNK         0.0706 
     20 H20        -6.5931   -3.4290    5.1144 H         1 UNK         0.0706 
     21 H21        -5.9128   -0.8489    2.5673 H         1 UNK         0.0706 
     22 H22        -5.3825   -1.9916    1.3554 H         1 UNK         0.0706 
     23 H23        -3.4058   -2.6293    2.7219 H         1 UNK         0.0691 
     24 H24        -3.4394   -0.9176    2.3890 H         1 UNK         0.0691 
     25 H25        -2.5782   -1.3887    6.0056 H         1 UNK         0.0626 
     26 H26        -1.9306   -2.1693    4.5973 H         1 UNK         0.0626 
     27 H27        -2.1432    0.3544    3.5526 H         1 UNK         0.0883 
     28 H28        -2.3092    0.7800    5.2143 H         1 UNK         0.0883 
     29 H29         0.0616    1.0318    4.4770 H         1 UNK         0.1467 
     30 H30         0.1760   -0.6939    4.1822 H         1 UNK         0.1467 
     31 H31         0.6901   -2.2404    6.3082 H         1 UNK         0.3980 
     32 H32        -7.5643   -2.9285    1.4876 H         1 UNK         0.0752 
     33 H33        -8.0583   -2.1015    2.8992 H         1 UNK         0.0752 
     34 H34        -8.4307   -4.2098    4.1488 H         1 UNK         0.0513 
     35 H35        -9.2986   -4.2144    2.6395 H         1 UNK         0.0513 
     36 H36        -6.6918   -5.2641    2.8761 H         1 UNK         0.4242 
@<TRIPOS>BOND
     1    1    2 1    
     2    1    6 1    
     3    1   17 1    
     4    1   18 1    
     5    2    3 1    
     6    2   19 1    
     7    2   20 1    
     8    3    4 1    
     9    3   14 1    
    10    4    5 1    
    11    4   21 1    
    12    4   22 1    
    13    5    6 1    
    14    5   23 1    
    15    5   24 1    
    16    6    7 1    
    17    7    8 1    
    18    7   25 1    
    19    7   26 1    
    20    8    9 1    
    21    8   27 1    
    22    8   28 1    
    23    9   10 1    
    24    9   29 1    
    25    9   30 1    
    26   10   11 2    
    27   10   12 2    
    28   10   13 1    
    29   13   31 1    
    30   14   15 1    
    31   14   32 1    
    32   14   33 1    
    33   15   16 1    
    34   15   34 1    
    35   15   35 1    
    36   16   36 1    
@<TRIPOS>SUBSTRUCTURE
     1 UNK         1 GROUP             0       ****    0 ROOT    
@<TRIPOS>MOLECULE
EPPS
36   36    1
SMALL
USER_CHARGES


@<TRIPOS>ATOM
      1 C1         -4.6270   -1.3673    3.7946 C.3       1 UNK         0.0986 
      2 C2         -5.5753   -2.5886    3.9554 C.3       1 UNK         0.1007 
      3 N3         -5.3626   -3.5790    2.8800 N.3       1 UNK        -0.7113 
      4 C4         -3.9440   -3.9884    2.9193 C.3       1 UNK         0.1007 
      5 C5         -3.0042   -2.7649    2.7412 C.3       1 UNK         0.0986 
      6 N6         -3.2099   -1.7845    3.8241 N.3       1 UNK        -0.7051 
      7 C7         -2.2876   -0.6520    3.6558 C.3       1 UNK         0.1131 
      8 C8         -2.2996    0.3218    4.8578 C.3       1 UNK        -0.1197 
      9 C9         -2.0326   -0.3026    6.2558 C.3       1 UNK        -0.2881 
     10 S10        -0.2478   -0.8334    6.5197 S.3       1 UNK         1.0110 
     11 O11         0.2133   -1.6877    5.4200 O.2       1 UNK        -0.4915 
     12 O12        -0.0616   -1.2345    7.9180 O.2       1 UNK        -0.4915 
     13 O13         0.4607    0.6383    6.3393 O.3       1 UNK        -0.5020 
     14 C14        -6.2253   -4.7672    3.0302 C.3       1 UNK         0.0871 
     15 C15        -7.7417   -4.5522    2.7902 C.3       1 UNK         0.1330 
     16 O16        -8.4055   -3.9182    3.8763 O.3       1 UNK        -0.6627 
     17 H17        -4.8325   -0.6725    4.6099 H         1 UNK         0.0691 
     18 H18        -4.8603   -0.8339    2.8699 H         1 UNK         0.0691 
     19 H19        -6.5984   -2.2140    3.9239 H         1 UNK         0.0706 
     20 H20        -5.4422   -3.0416    4.9408 H         1 UNK         0.0706 
     21 H21        -3.7396   -4.7030    2.1193 H         1 UNK         0.0706 
     22 H22        -3.7078   -4.5014    3.8552 H         1 UNK         0.0706 
     23 H23        -1.9697   -3.1145    2.7489 H         1 UNK         0.0691 
     24 H24        -3.1674   -2.3103    1.7607 H         1 UNK         0.0691 
     25 H25        -1.2726   -1.0303    3.5234 H         1 UNK         0.0626 
     26 H26        -2.5250   -0.1060    2.7391 H         1 UNK         0.0626 
     27 H27        -1.5514    1.0931    4.6668 H         1 UNK         0.0883 
     28 H28        -3.2365    0.8802    4.8611 H         1 UNK         0.0883 
     29 H29        -2.6302   -1.1958    6.4235 H         1 UNK         0.1467 
     30 H30        -2.2538    0.3984    7.0569 H         1 UNK         0.1467 
     31 H31         0.3322    1.1159    7.1815 H         1 UNK         0.3980 
     32 H32        -6.0435   -5.3645    3.9267 H         1 UNK         0.0752 
     33 H33        -5.9251   -5.4402    2.2236 H         1 UNK         0.0752 
     34 H34        -7.9062   -3.9965    1.8650 H         1 UNK         0.0513 
     35 H35        -8.2141   -5.5233    2.6304 H         1 UNK         0.0513 
     36 H36        -9.3436   -3.8316    3.6460 H         1 UNK         0.4242 
@<TRIPOS>BOND
     1    1    2 1    
     2    1    6 1    
     3    1   17 1    
     4    1   18 1    
     5    2    3 1    
     6    2   19 1    
     7    2   20 1    
     8    3    4 1    
     9    3   14 1    
    10    4    5 1    
    11    4   21 1    
    12    4   22 1    
    13    5    6 1    
    14    5   23 1    
    15    5   24 1    
    16    6    7 1    
    17    7    8 1    
    18    7   25 1    
    19    7   26 1    
    20    8    9 1    
    21    8   27 1    
    22    8   28 1    
    23    9   10 1    
    24    9   29 1    
    25    9   30 1    
    26   10   11 2    
    27   10   12 2    
    28   10   13 1    
    29   13   31 1    
    30   14   15 1    
    31   14   32 1    
    32   14   33 1    
    33   15   16 1    
    34   15   34 1    
    35   15   35 1    
    36   16   36 1    
@<TRIPOS>SUBSTRUCTURE
     1 UNK         1 GROUP             0       ****    0 ROOT    
@<TRIPOS>MOLECULE
EPPS
36   36    1
SMALL
USER_CHARGES


@<TRIPOS>ATOM
      1 C1         -4.9382   -1.3078    4.6055 C.3       1 UNK         0.0986 
      2 C2         -5.5754   -2.6814    4.2551 C.3       1 UNK         0.1007 
      3 N3         -5.6355   -2.8843    2.7931 N.3       1 UNK        -0.7113 
      4 C4         -4.2591   -2.7787    2.2677 C.3       1 UNK         0.1007 
      5 C5         -3.6300   -1.4006    2.6115 C.3       1 UNK         0.0986 
      6 N6         -3.5654   -1.2048    4.0741 N.3       1 UNK        -0.7051 
      7 C7         -2.9829    0.0936    4.4418 C.3       1 UNK         0.1131 
      8 C8         -1.4752    0.1915    4.1123 C.3       1 UNK        -0.1197 
      9 C9         -0.5693   -0.9009    4.7403 C.3       1 UNK        -0.2881 
     10 S10        -0.4592   -0.7637    6.6097 S.3       1 UNK         1.0110 
     11 O11        -1.7102   -1.2105    7.2318 O.2       1 UNK        -0.4915 
     12 O12         0.1608    0.5138    6.9765 O.2       1 UNK        -0.4915 
     13 O13         0.6625   -1.9387    6.8549 O.3       1 UNK        -0.5020 
     14 C14        -6.2052   -4.1964    2.4294 C.3       1 UNK         0.0871 
     15 C15        -7.7176   -4.3918    2.7081 C.3       1 UNK         0.1330 
     16 O16        -8.0179   -4.6286    4.0777 O.3       1 UNK        -0.6627 
     17 H17        -4.9226   -1.1987    5.6920 H         1 UNK         0.0691 
     18 H18        -5.5689   -0.5001    4.2256 H         1 UNK         0.0691 
     19 H19        -6.5798   -2.6933    4.6783 H         1 UNK         0.0706 
     20 H20        -5.0242   -3.4885    4.7436 H         1 UNK         0.0706 
     21 H21        -4.2647   -2.8966    1.1820 H         1 UNK         0.0706 
     22 H22        -3.6263   -3.5797    2.6586 H         1 UNK         0.0706 
     23 H23        -2.6287   -1.3700    2.1802 H         1 UNK         0.0691 
     24 H24        -4.1972   -0.5997    2.1310 H         1 UNK         0.0691 
     25 H25        -3.5237    0.9069    3.9509 H         1 UNK         0.0626 
     26 H26        -3.1097    0.2510    5.5151 H         1 UNK         0.0626 
     27 H27        -1.3361    0.2331    3.0314 H         1 UNK         0.0883 
     28 H28        -1.1252    1.1694    4.4486 H         1 UNK         0.0883 
     29 H29         0.4521   -0.8329    4.3739 H         1 UNK         0.1467 
     30 H30        -0.9309   -1.9062    4.5351 H         1 UNK         0.1467 
     31 H31         1.5326   -1.5412    6.6564 H         1 UNK         0.3980 
     32 H32        -5.6240   -5.0626    2.7542 H         1 UNK         0.0752 
     33 H33        -6.1306   -4.2467    1.3406 H         1 UNK         0.0752 
     34 H34        -8.2874   -3.5389    2.3341 H         1 UNK         0.0513 
     35 H35        -8.0735   -5.2495    2.1344 H         1 UNK         0.0513 
     36 H36        -8.9772   -4.7459    4.1592 H         1 UNK         0.4242 
@<TRIPOS>BOND
     1    1    2 1    
     2    1    6 1    
     3    1   17 1    
     4    1   18 1    
     5    2    3 1    
     6    2   19 1    
     7    2   20 1    
     8    3    4 1    
     9    3   14 1    
    10    4    5 1    
    11    4   21 1    
    12    4   22 1    
    13    5    6 1    
    14    5   23 1    
    15    5   24 1    
    16    6    7 1    
    17    7    8 1    
    18    7   25 1    
    19    7   26 1    
    20    8    9 1    
    21    8   27 1    
    22    8   28 1    
    23    9   10 1    
    24    9   29 1    
    25    9   30 1    
    26   10   11 2    
    27   10   12 2    
    28   10   13 1    
    29   13   31 1    
    30   14   15 1    
    31   14   32 1    
    32   14   33 1    
    33   15   16 1    
    34   15   34 1    
    35   15   35 1    
    36   16   36 1    
@<TRIPOS>SUBSTRUCTURE
     1 UNK         1 GROUP             0       ****    0 ROOT    
@<TRIPOS>MOLECULE
EPPS
36   36    1
SMALL
USER_CHARGES


@<TRIPOS>ATOM
      1 C1         -4.6038   -0.1115    5.0211 C.3       1 UNK         0.0986 
      2 C2         -5.6822   -1.2374    5.1450 C.3       1 UNK         0.1007 
      3 N3         -5.3216   -2.4983    4.4654 N.3       1 UNK        -0.7113 
      4 C4         -4.9092   -2.2051    3.0778 C.3       1 UNK         0.1007 
      5 C5         -3.8538   -1.0571    2.9512 C.3       1 UNK         0.0986 
      6 N6         -3.4094   -0.5151    4.2538 N.3       1 UNK        -0.7051 
      7 C7         -2.4595    0.5964    4.1128 C.3       1 UNK         0.1131 
      8 C8         -1.0307    0.0915    3.8061 C.3       1 UNK        -0.1197 
      9 C9         -0.1766   -0.3607    5.0273 C.3       1 UNK        -0.2881 
     10 S10        -1.0074   -1.5648    6.2147 S.3       1 UNK         1.0110 
     11 O11        -1.9407   -0.8448    7.0868 O.2       1 UNK        -0.4915 
     12 O12         0.0010   -2.4689    6.7789 O.2       1 UNK        -0.4915 
     13 O13        -1.8900   -2.4190    5.1295 O.3       1 UNK        -0.5020 
     14 C14        -6.4222   -3.4760    4.5592 C.3       1 UNK         0.0871 
     15 C15        -6.1059   -4.9149    4.0779 C.3       1 UNK         0.1330 
     16 O16        -6.0876   -5.0458    2.6617 O.3       1 UNK        -0.6627 
     17 H17        -4.3009    0.1905    6.0259 H         1 UNK         0.0691 
     18 H18        -5.0598    0.7733    4.5702 H         1 UNK         0.0691 
     19 H19        -6.6323   -0.8610    4.7582 H         1 UNK         0.0706 
     20 H20        -5.8515   -1.4385    6.2048 H         1 UNK         0.0706 
     21 H21        -5.7829   -1.9660    2.4671 H         1 UNK         0.0706 
     22 H22        -4.4722   -3.1028    2.6389 H         1 UNK         0.0706 
     23 H23        -3.0005   -1.4402    2.3903 H         1 UNK         0.0691 
     24 H24        -4.2725   -0.2567    2.3364 H         1 UNK         0.0691 
     25 H25        -2.7903    1.3251    3.3685 H         1 UNK         0.0626 
     26 H26        -2.4155    1.1403    5.0598 H         1 UNK         0.0626 
     27 H27        -1.0656   -0.7462    3.1090 H         1 UNK         0.0883 
     28 H28        -0.4902    0.8820    3.2827 H         1 UNK         0.0883 
     29 H29         0.1450    0.4794    5.6387 H         1 UNK         0.1467 
     30 H30         0.7236   -0.8720    4.6931 H         1 UNK         0.1467 
     31 H31        -2.5722   -1.7737    4.7882 H         1 UNK         0.3980 
     32 H32        -7.3837   -3.1298    4.1736 H         1 UNK         0.0752 
     33 H33        -6.6117   -3.5869    5.6294 H         1 UNK         0.0752 
     34 H34        -6.8668   -5.5932    4.4684 H         1 UNK         0.0513 
     35 H35        -5.1630   -5.2612    4.5058 H         1 UNK         0.0513 
     36 H36        -5.8906   -5.9709    2.4479 H         1 UNK         0.4242 
@<TRIPOS>BOND
     1    1    2 1    
     2    1    6 1    
     3    1   17 1    
     4    1   18 1    
     5    2    3 1    
     6    2   19 1    
     7    2   20 1    
     8    3    4 1    
     9    3   14 1    
    10    4    5 1    
    11    4   21 1    
    12    4   22 1    
    13    5    6 1    
    14    5   23 1    
    15    5   24 1    
    16    6    7 1    
    17    7    8 1    
    18    7   25 1    
    19    7   26 1    
    20    8    9 1    
    21    8   27 1    
    22    8   28 1    
    23    9   10 1    
    24    9   29 1    
    25    9   30 1    
    26   10   11 2    
    27   10   12 2    
    28   10   13 1    
    29   13   31 1    
    30   14   15 1    
    31   14   32 1    
    32   14   33 1    
    33   15   16 1    
    34   15   34 1    
    35   15   35 1    
    36   16   36 1    
@<TRIPOS>SUBSTRUCTURE
     1 UNK         1 GROUP             0       ****    0 ROOT    
@<TRIPOS>MOLECULE
EPPS
36   36    1
SMALL
USER_CHARGES


@<TRIPOS>ATOM
      1 C1         -4.3019    0.0313    3.7978 C.3       1 UNK         0.0986 
      2 C2         -5.5880   -0.8465    3.9470 C.3       1 UNK         0.1007 
      3 N3         -5.3227   -2.2960    4.0427 N.3       1 UNK        -0.7113 
      4 C4         -4.4401   -2.7058    2.9311 C.3       1 UNK         0.1007 
      5 C5         -3.1728   -1.8061    2.7526 C.3       1 UNK         0.0986 
      6 N6         -3.0470   -0.7515    3.7772 N.3       1 UNK        -0.7051 
      7 C7         -1.8609    0.0847    3.5495 C.3       1 UNK         0.1131 
      8 C8         -1.4181    0.8111    4.8404 C.3       1 UNK        -0.1197 
      9 C9         -0.5354   -0.0062    5.8294 C.3       1 UNK        -0.2881 
     10 S10        -1.1704   -1.7227    6.2772 S.3       1 UNK         1.0110 
     11 O11        -0.7882   -2.0404    7.6576 O.2       1 UNK        -0.4915 
     12 O12        -0.8893   -2.6613    5.1864 O.2       1 UNK        -0.4915 
     13 O13        -2.7785   -1.4062    6.2667 O.3       1 UNK        -0.5020 
     14 C14        -6.5853   -3.0565    4.1028 C.3       1 UNK         0.0871 
     15 C15        -6.4620   -4.5680    4.4227 C.3       1 UNK         0.1330 
     16 O16        -6.0246   -5.3464    3.3155 O.3       1 UNK        -0.6627 
     17 H17        -4.2842    0.7491    4.6188 H         1 UNK         0.0691 
     18 H18        -4.3847    0.6295    2.8872 H         1 UNK         0.0691 
     19 H19        -6.2553   -0.6421    3.1063 H         1 UNK         0.0706 
     20 H20        -6.1271   -0.5222    4.8396 H         1 UNK         0.0706 
     21 H21        -5.0012   -2.7347    1.9944 H         1 UNK         0.0706 
     22 H22        -4.0956   -3.7254    3.1073 H         1 UNK         0.0706 
     23 H23        -2.2875   -2.4448    2.7810 H         1 UNK         0.0691 
     24 H24        -3.1863   -1.3619    1.7544 H         1 UNK         0.0691 
     25 H25        -1.0341   -0.5592    3.2393 H         1 UNK         0.0626 
     26 H26        -2.0094    0.7907    2.7285 H         1 UNK         0.0626 
     27 H27        -0.8736    1.7141    4.5593 H         1 UNK         0.0883 
     28 H28        -2.2886    1.1592    5.3973 H         1 UNK         0.0883 
     29 H29        -0.4450    0.5165    6.7793 H         1 UNK         0.1467 
     30 H30         0.4740   -0.1558    5.4531 H         1 UNK         0.1467 
     31 H31        -2.9968   -1.2167    5.3103 H         1 UNK         0.3980 
     32 H32        -7.2726   -2.8801    3.2724 H         1 UNK         0.0752 
     33 H33        -7.1234   -2.6445    4.9595 H         1 UNK         0.0752 
     34 H34        -5.8063   -4.7234    5.2818 H         1 UNK         0.0513 
     35 H35        -7.4387   -4.9440    4.7330 H         1 UNK         0.0513 
     36 H36        -5.9802   -6.2729    3.5983 H         1 UNK         0.4242 
@<TRIPOS>BOND
     1    1    2 1    
     2    1    6 1    
     3    1   17 1    
     4    1   18 1    
     5    2    3 1    
     6    2   19 1    
     7    2   20 1    
     8    3    4 1    
     9    3   14 1    
    10    4    5 1    
    11    4   21 1    
    12    4   22 1    
    13    5    6 1    
    14    5   23 1    
    15    5   24 1    
    16    6    7 1    
    17    7    8 1    
    18    7   25 1    
    19    7   26 1    
    20    8    9 1    
    21    8   27 1    
    22    8   28 1    
    23    9   10 1    
    24    9   29 1    
    25    9   30 1    
    26   10   11 2    
    27   10   12 2    
    28   10   13 1    
    29   13   31 1    
    30   14   15 1    
    31   14   32 1    
    32   14   33 1    
    33   15   16 1    
    34   15   34 1    
    35   15   35 1    
    36   16   36 1    
@<TRIPOS>SUBSTRUCTURE
     1 UNK         1 GROUP             0       ****    0 ROOT    
@<TRIPOS>MOLECULE
EPPS
36   36    1
SMALL
USER_CHARGES


@<TRIPOS>ATOM
      1 C1         -4.4143   -1.7916    3.4495 C.3       1 UNK         0.0986 
      2 C2         -5.2302   -2.8165    2.6132 C.3       1 UNK         0.1007 
      3 N3         -6.0003   -3.7210    3.4939 N.3       1 UNK        -0.7113 
      4 C4         -5.0452   -4.4037    4.3889 C.3       1 UNK         0.1007 
      5 C5         -4.2290   -3.3751    5.2197 C.3       1 UNK         0.0986 
      6 N6         -3.4533   -2.4814    4.3367 N.3       1 UNK        -0.7051 
      7 C7         -2.6763   -1.5296    5.1403 C.3       1 UNK         0.1131 
      8 C8         -1.5553   -0.8526    4.3195 C.3       1 UNK        -0.1197 
      9 C9         -0.9948    0.4585    4.9322 C.3       1 UNK        -0.2881 
     10 S10        -0.1287    0.2256    6.5871 S.3       1 UNK         1.0110 
     11 O11         0.5729    1.4618    6.9479 O.2       1 UNK        -0.4915 
     12 O12        -1.0186   -0.4461    7.5405 O.2       1 UNK        -0.4915 
     13 O13         1.0087   -0.8594    6.1090 O.3       1 UNK        -0.5020 
     14 C14        -6.7790   -4.7239    2.7410 C.3       1 UNK         0.0871 
     15 C15        -7.9513   -4.1316    1.9254 C.3       1 UNK         0.1330 
     16 O16        -8.8645   -3.4873    2.7980 O.3       1 UNK        -0.6627 
     17 H17        -5.0954   -1.1604    4.0257 H         1 UNK         0.0691 
     18 H18        -3.8970   -1.1241    2.7598 H         1 UNK         0.0691 
     19 H19        -4.5597   -3.3794    1.9590 H         1 UNK         0.0706 
     20 H20        -5.9008   -2.2591    1.9581 H         1 UNK         0.0706 
     21 H21        -4.3646   -5.0458    3.8240 H         1 UNK         0.0706 
     22 H22        -5.5842   -5.0590    5.0764 H         1 UNK         0.0706 
     23 H23        -4.8995   -2.8056    5.8682 H         1 UNK         0.0691 
     24 H24        -3.5536   -3.9210    5.8818 H         1 UNK         0.0691 
     25 H25        -3.3142   -0.7885    5.6286 H         1 UNK         0.0626 
     26 H26        -2.1945   -2.0769    5.9537 H         1 UNK         0.0626 
     27 H27        -0.7257   -1.5603    4.2669 H         1 UNK         0.0883 
     28 H28        -1.8387   -0.7068    3.2771 H         1 UNK         0.0883 
     29 H29        -1.7773    1.1927    5.1108 H         1 UNK         0.1467 
     30 H30        -0.2581    0.9190    4.2779 H         1 UNK         0.1467 
     31 H31         1.7135   -0.3489    5.6654 H         1 UNK         0.3980 
     32 H32        -7.1451   -5.5537    3.3504 H         1 UNK         0.0752 
     33 H33        -6.1092   -5.2184    2.0329 H         1 UNK         0.0752 
     34 H34        -7.5985   -3.4395    1.1597 H         1 UNK         0.0513 
     35 H35        -8.4704   -4.9287    1.3905 H         1 UNK         0.0513 
     36 H36        -8.3167   -2.9535    3.3973 H         1 UNK         0.4242 
@<TRIPOS>BOND
     1    1    2 1    
     2    1    6 1    
     3    1   17 1    
     4    1   18 1    
     5    2    3 1    
     6    2   19 1    
     7    2   20 1    
     8    3    4 1    
     9    3   14 1    
    10    4    5 1    
    11    4   21 1    
    12    4   22 1    
    13    5    6 1    
    14    5   23 1    
    15    5   24 1    
    16    6    7 1    
    17    7    8 1    
    18    7   25 1    
    19    7   26 1    
    20    8    9 1    
    21    8   27 1    
    22    8   28 1    
    23    9   10 1    
    24    9   29 1    
    25    9   30 1    
    26   10   11 2    
    27   10   12 2    
    28   10   13 1    
    29   13   31 1    
    30   14   15 1    
    31   14   32 1    
    32   14   33 1    
    33   15   16 1    
    34   15   34 1    
    35   15   35 1    
    36   16   36 1    
@<TRIPOS>SUBSTRUCTURE
     1 UNK         1 GROUP             0       ****    0 ROOT    
@<TRIPOS>MOLECULE
EPPS
36   36    1
SMALL
USER_CHARGES


@<TRIPOS>ATOM
      1 C1         -4.3936   -1.7918    4.6725 C.3       1 UNK         0.0986 
      2 C2         -5.8703   -2.0737    4.2780 C.3       1 UNK         0.1007 
      3 N3         -5.9408   -2.9261    3.0716 N.3       1 UNK        -0.7113 
      4 C4         -5.2213   -2.2333    1.9846 C.3       1 UNK         0.1007 
      5 C5         -3.7465   -1.9528    2.3849 C.3       1 UNK         0.0986 
      6 N6         -3.6809   -1.0917    3.5824 N.3       1 UNK        -0.7051 
      7 C7         -2.2807   -0.8246    3.9330 C.3       1 UNK         0.1131 
      8 C8         -2.1446    0.3680    4.9056 C.3       1 UNK        -0.1197 
      9 C9         -0.7353    0.5561    5.5238 C.3       1 UNK        -0.2881 
     10 S10        -0.3259   -0.7222    6.8417 S.3       1 UNK         1.0110 
     11 O11         0.9022   -0.3290    7.5402 O.2       1 UNK        -0.4915 
     12 O12        -1.5385   -1.0910    7.5811 O.2       1 UNK        -0.4915 
     13 O13         0.0620   -1.9755    5.8537 O.3       1 UNK        -0.5020 
     14 C14        -7.3279   -3.2044    2.6501 C.3       1 UNK         0.0871 
     15 C15        -8.1153   -4.1095    3.6254 C.3       1 UNK         0.1330 
     16 O16        -7.4703   -5.3672    3.7378 O.3       1 UNK        -0.6627 
     17 H17        -3.8938   -2.7294    4.9281 H         1 UNK         0.0691 
     18 H18        -4.3936   -1.1930    5.5836 H         1 UNK         0.0691 
     19 H19        -6.4002   -1.1301    4.1258 H         1 UNK         0.0706 
     20 H20        -6.3563   -2.5654    5.1216 H         1 UNK         0.0706 
     21 H21        -5.7166   -1.2962    1.7178 H         1 UNK         0.0706 
     22 H22        -5.2275   -2.8500    1.0833 H         1 UNK         0.0706 
     23 H23        -3.2197   -2.8966    2.5471 H         1 UNK         0.0691 
     24 H24        -3.2459   -1.4629    1.5471 H         1 UNK         0.0691 
     25 H25        -1.7839   -1.7190    4.3114 H         1 UNK         0.0626 
     26 H26        -1.7285   -0.5605    3.0275 H         1 UNK         0.0626 
     27 H27        -2.3266    1.2651    4.3106 H         1 UNK         0.0883 
     28 H28        -2.9235    0.3879    5.6684 H         1 UNK         0.0883 
     29 H29        -0.6628    1.5134    6.0357 H         1 UNK         0.1467 
     30 H30         0.0629    0.5164    4.7861 H         1 UNK         0.1467 
     31 H31         0.9922   -1.8428    5.5870 H         1 UNK         0.3980 
     32 H32        -7.4147   -3.6031    1.6365 H         1 UNK         0.0752 
     33 H33        -7.8646   -2.2545    2.5852 H         1 UNK         0.0752 
     34 H34        -8.2235   -3.6445    4.6060 H         1 UNK         0.0513 
     35 H35        -9.1299   -4.2605    3.2532 H         1 UNK         0.0513 
     36 H36        -6.5269   -5.1647    3.8520 H         1 UNK         0.4242 
@<TRIPOS>BOND
     1    1    2 1    
     2    1    6 1    
     3    1   17 1    
     4    1   18 1    
     5    2    3 1    
     6    2   19 1    
     7    2   20 1    
     8    3    4 1    
     9    3   14 1    
    10    4    5 1    
    11    4   21 1    
    12    4   22 1    
    13    5    6 1    
    14    5   23 1    
    15    5   24 1    
    16    6    7 1    
    17    7    8 1    
    18    7   25 1    
    19    7   26 1    
    20    8    9 1    
    21    8   27 1    
    22    8   28 1    
    23    9   10 1    
    24    9   29 1    
    25    9   30 1    
    26   10   11 2    
    27   10   12 2    
    28   10   13 1    
    29   13   31 1    
    30   14   15 1    
    31   14   32 1    
    32   14   33 1    
    33   15   16 1    
    34   15   34 1    
    35   15   35 1    
    36   16   36 1    
@<TRIPOS>SUBSTRUCTURE
     1 UNK         1 GROUP             0       ****    0 ROOT    
@<TRIPOS>MOLECULE
EPPS
36   36    1
SMALL
USER_CHARGES


@<TRIPOS>ATOM
      1 C1         -4.5768   -1.3105    4.1958 C.3       1 UNK         0.0986 
      2 C2         -5.3007   -2.6663    3.9622 C.3       1 UNK         0.1007 
      3 N3         -5.7145   -2.8181    2.5522 N.3       1 UNK        -0.7113 
      4 C4         -4.5047   -2.7005    1.7131 C.3       1 UNK         0.1007 
      5 C5         -3.7978   -1.3365    1.9408 C.3       1 UNK         0.0986 
      6 N6         -3.3732   -1.1946    3.3467 N.3       1 UNK        -0.7051 
      7 C7         -2.6781    0.0878    3.5312 C.3       1 UNK         0.1131 
      8 C8         -2.0227    0.2265    4.9228 C.3       1 UNK        -0.1197 
      9 C9         -0.9953   -0.8816    5.2608 C.3       1 UNK        -0.2881 
     10 S10        -0.2290   -0.6135    6.9488 S.3       1 UNK         1.0110 
     11 O11        -1.2367   -0.8281    7.9925 O.2       1 UNK        -0.4915 
     12 O12         0.6063    0.5928    6.9287 O.2       1 UNK        -0.4915 
     13 O13         0.7721   -1.9159    6.9543 O.3       1 UNK        -0.5020 
     14 C14        -6.3718   -4.1144    2.2946 C.3       1 UNK         0.0871 
     15 C15        -7.7746   -4.3121    2.9241 C.3       1 UNK         0.1330 
     16 O16        -7.7383   -4.5939    4.3175 O.3       1 UNK        -0.6627 
     17 H17        -4.3023   -1.2542    5.2499 H         1 UNK         0.0691 
     18 H18        -5.2674   -0.4834    4.0138 H         1 UNK         0.0691 
     19 H19        -6.1740   -2.6869    4.6142 H         1 UNK         0.0706 
     20 H20        -4.6606   -3.4942    4.2767 H         1 UNK         0.0706 
     21 H21        -4.7733   -2.7809    0.6577 H         1 UNK         0.0706 
     22 H22        -3.8053   -3.5162    1.9135 H         1 UNK         0.0706 
     23 H23        -2.9285   -1.2794    1.2824 H         1 UNK         0.0691 
     24 H24        -4.4613   -0.5202    1.6442 H         1 UNK         0.0691 
     25 H25        -1.8867    0.1697    2.7821 H         1 UNK         0.0626 
     26 H26        -3.3583    0.9246    3.3526 H         1 UNK         0.0626 
     27 H27        -1.5135    1.1920    4.9465 H         1 UNK         0.0883 
     28 H28        -2.7865    0.3146    5.6968 H         1 UNK         0.0883 
     29 H29        -0.1671   -0.9068    4.5564 H         1 UNK         0.1467 
     30 H30        -1.4512   -1.8687    5.2843 H         1 UNK         0.1467 
     31 H31         0.2243   -2.6883    7.1945 H         1 UNK         0.3980 
     32 H32        -5.7405   -4.9939    2.4411 H         1 UNK         0.0752 
     33 H33        -6.5628   -4.1274    1.2190 H         1 UNK         0.0752 
     34 H34        -8.4070   -3.4445    2.7261 H         1 UNK         0.0513 
     35 H35        -8.2692   -5.1483    2.4264 H         1 UNK         0.0513 
     36 H36        -8.6510   -4.7089    4.6248 H         1 UNK         0.4242 
@<TRIPOS>BOND
     1    1    2 1    
     2    1    6 1    
     3    1   17 1    
     4    1   18 1    
     5    2    3 1    
     6    2   19 1    
     7    2   20 1    
     8    3    4 1    
     9    3   14 1    
    10    4    5 1    
    11    4   21 1    
    12    4   22 1    
    13    5    6 1    
    14    5   23 1    
    15    5   24 1    
    16    6    7 1    
    17    7    8 1    
    18    7   25 1    
    19    7   26 1    
    20    8    9 1    
    21    8   27 1    
    22    8   28 1    
    23    9   10 1    
    24    9   29 1    
    25    9   30 1    
    26   10   11 2    
    27   10   12 2    
    28   10   13 1    
    29   13   31 1    
    30   14   15 1    
    31   14   32 1    
    32   14   33 1    
    33   15   16 1    
    34   15   34 1    
    35   15   35 1    
    36   16   36 1    
@<TRIPOS>SUBSTRUCTURE
     1 UNK         1 GROUP             0       ****    0 ROOT    
@<TRIPOS>MOLECULE
EPPS
36   36    1
SMALL
USER_CHARGES


@<TRIPOS>ATOM
      1 C1         -4.0474   -0.0677    3.6637 C.3       1 UNK         0.0986 
      2 C2         -5.3653   -0.9098    3.6410 C.3       1 UNK         0.1007 
      3 N3         -5.1515   -2.3704    3.6909 N.3       1 UNK        -0.7113 
      4 C4         -4.1703   -2.7557    2.6533 C.3       1 UNK         0.1007 
      5 C5         -2.8618   -1.8981    2.6610 C.3       1 UNK         0.0986 
      6 N6         -2.8186   -0.8859    3.7353 N.3       1 UNK        -0.7051 
      7 C7         -1.5856   -0.0931    3.6609 C.3       1 UNK         0.1131 
      8 C8         -1.4092    0.8608    4.8667 C.3       1 UNK        -0.1197 
      9 C9         -1.6877    0.3007    6.2929 C.3       1 UNK        -0.2881 
     10 S10        -1.0191   -1.4285    6.5889 S.3       1 UNK         1.0110 
     11 O11        -1.0750   -1.7465    8.0199 O.2       1 UNK        -0.4915 
     12 O12         0.2114   -1.6416    5.8193 O.2       1 UNK        -0.4915 
     13 O13        -2.2274   -2.2656    5.8561 O.3       1 UNK        -0.5020 
     14 C14        -6.4333   -3.0934    3.5994 C.3       1 UNK         0.0871 
     15 C15        -6.2812   -4.6030    3.8952 C.3       1 UNK         0.1330 
     16 O16        -7.5529   -5.2331    3.8705 O.3       1 UNK        -0.6627 
     17 H17        -4.0902    0.6087    4.5187 H         1 UNK         0.0691 
     18 H18        -4.0187    0.5749    2.7806 H         1 UNK         0.0691 
     19 H19        -5.9397   -0.6447    2.7502 H         1 UNK         0.0706 
     20 H20        -5.9813   -0.6099    4.4913 H         1 UNK         0.0706 
     21 H21        -4.6286   -2.7016    1.6631 H         1 UNK         0.0706 
     22 H22        -3.8823   -3.7984    2.7931 H         1 UNK         0.0706 
     23 H23        -2.0060   -2.5691    2.7622 H         1 UNK         0.0691 
     24 H24        -2.7466   -1.4172    1.6864 H         1 UNK         0.0691 
     25 H25        -0.7185   -0.7541    3.5960 H         1 UNK         0.0626 
     26 H26        -1.5859    0.4911    2.7370 H         1 UNK         0.0626 
     27 H27        -0.3758    1.2112    4.8364 H         1 UNK         0.0883 
     28 H28        -1.9846    1.7725    4.6983 H         1 UNK         0.0883 
     29 H29        -2.7499    0.2554    6.5211 H         1 UNK         0.1467 
     30 H30        -1.2213    0.9230    7.0534 H         1 UNK         0.1467 
     31 H31        -2.4607   -1.7710    5.0203 H         1 UNK         0.3980 
     32 H32        -6.8328   -2.9424    2.5937 H         1 UNK         0.0752 
     33 H33        -7.0973   -2.6602    4.3510 H         1 UNK         0.0752 
     34 H34        -5.6406   -5.0911    3.1595 H         1 UNK         0.0513 
     35 H35        -5.8179   -4.7572    4.8719 H         1 UNK         0.0513 
     36 H36        -7.4268   -6.1744    4.0699 H         1 UNK         0.4242 
@<TRIPOS>BOND
     1    1    2 1    
     2    1    6 1    
     3    1   17 1    
     4    1   18 1    
     5    2    3 1    
     6    2   19 1    
     7    2   20 1    
     8    3    4 1    
     9    3   14 1    
    10    4    5 1    
    11    4   21 1    
    12    4   22 1    
    13    5    6 1    
    14    5   23 1    
    15    5   24 1    
    16    6    7 1    
    17    7    8 1    
    18    7   25 1    
    19    7   26 1    
    20    8    9 1    
    21    8   27 1    
    22    8   28 1    
    23    9   10 1    
    24    9   29 1    
    25    9   30 1    
    26   10   11 2    
    27   10   12 2    
    28   10   13 1    
    29   13   31 1    
    30   14   15 1    
    31   14   32 1    
    32   14   33 1    
    33   15   16 1    
    34   15   34 1    
    35   15   35 1    
    36   16   36 1    
@<TRIPOS>SUBSTRUCTURE
     1 UNK         1 GROUP             0       ****    0 ROOT    
@<TRIPOS>MOLECULE
EPPS
36   36    1
SMALL
USER_CHARGES


@<TRIPOS>ATOM
      1 C1         -4.7053   -1.2404    5.1415 C.3       1 UNK         0.0986 
      2 C2         -5.5039   -2.5683    5.2529 C.3       1 UNK         0.1007 
      3 N3         -6.2927   -2.8218    4.0302 N.3       1 UNK        -0.7113 
      4 C4         -5.3542   -2.8642    2.8902 C.3       1 UNK         0.1007 
      5 C5         -4.5458   -1.5414    2.7799 C.3       1 UNK         0.0986 
      6 N6         -3.7626   -1.2899    4.0052 N.3       1 UNK        -0.7051 
      7 C7         -2.9940   -0.0451    3.8586 C.3       1 UNK         0.1131 
      8 C8         -1.9957    0.1907    5.0133 C.3       1 UNK        -0.1197 
      9 C9         -0.9617   -0.9451    5.2095 C.3       1 UNK        -0.2881 
     10 S10         0.2262   -0.5564    6.6047 S.3       1 UNK         1.0110 
     11 O11         1.0990    0.5574    6.2186 O.2       1 UNK        -0.4915 
     12 O12        -0.4928   -0.5565    7.8838 O.2       1 UNK        -0.4915 
     13 O13         1.1209   -1.9321    6.5327 O.3       1 UNK        -0.5020 
     14 C14        -7.0519   -4.0785    4.1817 C.3       1 UNK         0.0871 
     15 C15        -8.1041   -4.3837    3.0850 C.3       1 UNK         0.1330 
     16 O16        -7.5383   -4.8585    1.8698 O.3       1 UNK        -0.6627 
     17 H17        -4.1643   -1.0934    6.0770 H         1 UNK         0.0691 
     18 H18        -5.3929   -0.3964    5.0472 H         1 UNK         0.0691 
     19 H19        -6.1677   -2.5028    6.1175 H         1 UNK         0.0706 
     20 H20        -4.8177   -3.3944    5.4567 H         1 UNK         0.0706 
     21 H21        -5.9017   -2.9917    1.9564 H         1 UNK         0.0706 
     22 H22        -4.6747   -3.7163    2.9693 H         1 UNK         0.0706 
     23 H23        -3.8757   -1.6139    1.9207 H         1 UNK         0.0691 
     24 H24        -5.2242   -0.7108    2.5691 H         1 UNK         0.0691 
     25 H25        -3.6645    0.8128    3.7631 H         1 UNK         0.0626 
     26 H26        -2.4215   -0.0928    2.9291 H         1 UNK         0.0626 
     27 H27        -1.4590    1.1159    4.7941 H         1 UNK         0.0883 
     28 H28        -2.5293    0.4113    5.9390 H         1 UNK         0.0883 
     29 H29        -0.3520   -1.1058    4.3238 H         1 UNK         0.1467 
     30 H30        -1.4344   -1.8890    5.4722 H         1 UNK         0.1467 
     31 H31         1.7568   -1.8140    5.8005 H         1 UNK         0.3980 
     32 H32        -7.6484   -3.9428    5.0869 H         1 UNK         0.0752 
     33 H33        -6.4509   -4.9604    4.4153 H         1 UNK         0.0752 
     34 H34        -8.7886   -5.1484    3.4567 H         1 UNK         0.0513 
     35 H35        -8.7265   -3.5061    2.8992 H         1 UNK         0.0513 
     36 H36        -8.2622   -5.0282    1.2472 H         1 UNK         0.4242 
@<TRIPOS>BOND
     1    1    2 1    
     2    1    6 1    
     3    1   17 1    
     4    1   18 1    
     5    2    3 1    
     6    2   19 1    
     7    2   20 1    
     8    3    4 1    
     9    3   14 1    
    10    4    5 1    
    11    4   21 1    
    12    4   22 1    
    13    5    6 1    
    14    5   23 1    
    15    5   24 1    
    16    6    7 1    
    17    7    8 1    
    18    7   25 1    
    19    7   26 1    
    20    8    9 1    
    21    8   27 1    
    22    8   28 1    
    23    9   10 1    
    24    9   29 1    
    25    9   30 1    
    26   10   11 2    
    27   10   12 2    
    28   10   13 1    
    29   13   31 1    
    30   14   15 1    
    31   14   32 1    
    32   14   33 1    
    33   15   16 1    
    34   15   34 1    
    35   15   35 1    
    36   16   36 1    
@<TRIPOS>SUBSTRUCTURE
     1 UNK         1 GROUP             0       ****    0 ROOT    
@<TRIPOS>MOLECULE
EPPS
36   36    1
SMALL
USER_CHARGES


@<TRIPOS>ATOM
      1 C1         -5.3221   -1.1225    3.9591 C.3       1 UNK         0.0986 
      2 C2         -6.0035   -2.5188    3.9205 C.3       1 UNK         0.1007 
      3 N3         -5.4810   -3.3366    2.8067 N.3       1 UNK        -0.7113 
      4 C4         -4.0191   -3.4540    2.9819 C.3       1 UNK         0.1007 
      5 C5         -3.3419   -2.0561    3.0107 C.3       1 UNK         0.0986 
      6 N6         -3.8615   -1.2453    4.1308 N.3       1 UNK        -0.7051 
      7 C7         -3.2516    0.0912    4.1867 C.3       1 UNK         0.1131 
      8 C8         -1.7552    0.0587    4.5682 C.3       1 UNK        -0.1197 
      9 C9         -1.4545   -0.6195    5.9274 C.3       1 UNK        -0.2881 
     10 S10         0.3761   -0.5798    6.3225 S.3       1 UNK         1.0110 
     11 O11         0.7959    0.7987    6.5959 O.2       1 UNK        -0.4915 
     12 O12         1.1074   -1.4280    5.3744 O.2       1 UNK        -0.4915 
     13 O13         0.3166   -1.3717    7.7605 O.3       1 UNK        -0.5020 
     14 C14        -6.0845   -4.6830    2.7650 C.3       1 UNK         0.0871 
     15 C15        -7.5811   -4.7551    2.3674 C.3       1 UNK         0.1330 
     16 O16        -8.4668   -4.3786    3.4144 O.3       1 UNK        -0.6627 
     17 H17        -5.7455   -0.5517    4.7881 H         1 UNK         0.0691 
     18 H18        -5.5661   -0.5674    3.0498 H         1 UNK         0.0691 
     19 H19        -7.0743   -2.3568    3.7982 H         1 UNK         0.0706 
     20 H20        -5.8749   -3.0281    4.8787 H         1 UNK         0.0706 
     21 H21        -3.5906   -4.0305    2.1594 H         1 UNK         0.0706 
     22 H22        -3.7751   -3.9999    3.8969 H         1 UNK         0.0706 
     23 H23        -2.2666   -2.2049    3.1169 H         1 UNK         0.0691 
     24 H24        -3.4899   -1.5485    2.0544 H         1 UNK         0.0691 
     25 H25        -3.3843    0.6158    3.2370 H         1 UNK         0.0626 
     26 H26        -3.7737    0.6848    4.9412 H         1 UNK         0.0626 
     27 H27        -1.1661   -0.3810    3.7620 H         1 UNK         0.0883 
     28 H28        -1.4087    1.0931    4.6110 H         1 UNK         0.0883 
     29 H29        -1.7402   -1.6691    5.9339 H         1 UNK         0.1467 
     30 H30        -1.9572   -0.1256    6.7552 H         1 UNK         0.1467 
     31 H31         0.0391   -0.7159    8.4294 H         1 UNK         0.3980 
     32 H32        -5.8698   -5.3165    3.6287 H         1 UNK         0.0752 
     33 H33        -5.5714   -5.1991    1.9501 H         1 UNK         0.0752 
     34 H34        -7.7678   -4.1548    1.4747 H         1 UNK         0.0513 
     35 H35        -7.8200   -5.7806    2.0797 H         1 UNK         0.0513 
     36 H36        -9.3749   -4.4600    3.0838 H         1 UNK         0.4242 
@<TRIPOS>BOND
     1    1    2 1    
     2    1    6 1    
     3    1   17 1    
     4    1   18 1    
     5    2    3 1    
     6    2   19 1    
     7    2   20 1    
     8    3    4 1    
     9    3   14 1    
    10    4    5 1    
    11    4   21 1    
    12    4   22 1    
    13    5    6 1    
    14    5   23 1    
    15    5   24 1    
    16    6    7 1    
    17    7    8 1    
    18    7   25 1    
    19    7   26 1    
    20    8    9 1    
    21    8   27 1    
    22    8   28 1    
    23    9   10 1    
    24    9   29 1    
    25    9   30 1    
    26   10   11 2    
    27   10   12 2    
    28   10   13 1    
    29   13   31 1    
    30   14   15 1    
    31   14   32 1    
    32   14   33 1    
    33   15   16 1    
    34   15   34 1    
    35   15   35 1    
    36   16   36 1    
@<TRIPOS>SUBSTRUCTURE
     1 UNK         1 GROUP             0       ****    0 ROOT    
@<TRIPOS>MOLECULE
EPPS
36   36    1
SMALL
USER_CHARGES


@<TRIPOS>ATOM
      1 C1         -4.5063   -1.5536    4.1189 C.3       1 UNK         0.0986 
      2 C2         -5.3061   -2.8806    3.9919 C.3       1 UNK         0.1007 
      3 N3         -5.6644   -3.1592    2.5861 N.3       1 UNK        -0.7113 
      4 C4         -4.4126   -3.2061    1.8034 C.3       1 UNK         0.1007 
      5 C5         -3.6288   -1.8708    1.9229 C.3       1 UNK         0.0986 
      6 N6         -3.2603   -1.6031    3.3263 N.3       1 UNK        -0.7051 
      7 C7         -2.4914   -0.3527    3.4109 C.3       1 UNK         0.1131 
      8 C8         -1.8936   -0.1015    4.8130 C.3       1 UNK        -0.1197 
      9 C9         -0.9564   -1.2278    5.3190 C.3       1 UNK        -0.2881 
     10 S10        -0.2836   -0.8842    7.0358 S.3       1 UNK         1.0110 
     11 O11         0.6222   -1.9680    7.4327 O.2       1 UNK        -0.4915 
     12 O12        -1.3625   -0.4290    7.9191 O.2       1 UNK        -0.4915 
     13 O13         0.6390    0.4252    6.6697 O.3       1 UNK        -0.5020 
     14 C14        -6.3923   -4.4340    2.4324 C.3       1 UNK         0.0871 
     15 C15        -7.8314   -4.4793    3.0071 C.3       1 UNK         0.1330 
     16 O16        -7.8749   -4.6120    4.4223 O.3       1 UNK        -0.6627 
     17 H17        -4.2768   -1.4005    5.1741 H         1 UNK         0.0691 
     18 H18        -5.1321   -0.7109    3.8152 H         1 UNK         0.0691 
     19 H19        -6.2076   -2.7777    4.5958 H         1 UNK         0.0706 
     20 H20        -4.7367   -3.7066    4.4249 H         1 UNK         0.0706 
     21 H21        -4.6379   -3.3840    0.7498 H         1 UNK         0.0706 
     22 H22        -3.7780   -4.0360    2.1248 H         1 UNK         0.0706 
     23 H23        -2.7285   -1.9381    1.3086 H         1 UNK         0.0691 
     24 H24        -4.2230   -1.0528    1.5075 H         1 UNK         0.0691 
     25 H25        -1.6622   -0.4020    2.7009 H         1 UNK         0.0626 
     26 H26        -3.1055    0.4992    3.1075 H         1 UNK         0.0626 
     27 H27        -1.3280    0.8299    4.7572 H         1 UNK         0.0883 
     28 H28        -2.6875    0.1138    5.5296 H         1 UNK         0.0883 
     29 H29        -0.0878   -1.3620    4.6786 H         1 UNK         0.1467 
     30 H30        -1.4741   -2.1816    5.3927 H         1 UNK         0.1467 
     31 H31         0.0467    1.2008    6.7006 H         1 UNK         0.3980 
     32 H32        -5.8264   -5.3288    2.7017 H         1 UNK         0.0752 
     33 H33        -6.5362   -4.5510    1.3557 H         1 UNK         0.0752 
     34 H34        -8.3971   -3.6017    2.6881 H         1 UNK         0.0513 
     35 H35        -8.3565   -5.3331    2.5747 H         1 UNK         0.0513 
     36 H36        -8.8057   -4.6402    4.6931 H         1 UNK         0.4242 
@<TRIPOS>BOND
     1    1    2 1    
     2    1    6 1    
     3    1   17 1    
     4    1   18 1    
     5    2    3 1    
     6    2   19 1    
     7    2   20 1    
     8    3    4 1    
     9    3   14 1    
    10    4    5 1    
    11    4   21 1    
    12    4   22 1    
    13    5    6 1    
    14    5   23 1    
    15    5   24 1    
    16    6    7 1    
    17    7    8 1    
    18    7   25 1    
    19    7   26 1    
    20    8    9 1    
    21    8   27 1    
    22    8   28 1    
    23    9   10 1    
    24    9   29 1    
    25    9   30 1    
    26   10   11 2    
    27   10   12 2    
    28   10   13 1    
    29   13   31 1    
    30   14   15 1    
    31   14   32 1    
    32   14   33 1    
    33   15   16 1    
    34   15   34 1    
    35   15   35 1    
    36   16   36 1    
@<TRIPOS>SUBSTRUCTURE
     1 UNK         1 GROUP             0       ****    0 ROOT    
@<TRIPOS>MOLECULE
EPPS
36   36    1
SMALL
USER_CHARGES


@<TRIPOS>ATOM
      1 C1         -5.1339   -0.9041    4.5304 C.3       1 UNK         0.0986 
      2 C2         -5.6139   -2.3504    4.8347 C.3       1 UNK         0.1007 
      3 N3         -5.3551   -3.2456    3.6862 N.3       1 UNK        -0.7113 
      4 C4         -3.9059   -3.2130    3.4064 C.3       1 UNK         0.1007 
      5 C5         -3.4291   -1.7662    3.1019 C.3       1 UNK         0.0986 
      6 N6         -3.6845   -0.8782    4.2550 N.3       1 UNK        -0.7051 
      7 C7         -3.2385    0.4965    4.0052 C.3       1 UNK         0.1131 
      8 C8         -1.7010    0.6557    4.0240 C.3       1 UNK        -0.1197 
      9 C9         -0.9975    0.4609    5.3958 C.3       1 UNK        -0.2881 
     10 S10        -0.8902   -1.3324    5.9588 S.3       1 UNK         1.0110 
     11 O11        -0.4585   -2.1916    4.8511 O.2       1 UNK        -0.4915 
     12 O12        -2.0355   -1.6805    6.8069 O.2       1 UNK        -0.4915 
     13 O13         0.4040   -1.1632    6.9568 O.3       1 UNK        -0.5020 
     14 C14        -5.7799   -4.6362    3.9406 C.3       1 UNK         0.0871 
     15 C15        -7.3115   -4.8199    4.0441 C.3       1 UNK         0.1330 
     16 O16        -7.9238   -4.4275    2.8270 O.3       1 UNK        -0.6627 
     17 H17        -5.3588   -0.2737    5.3931 H         1 UNK         0.0691 
     18 H18        -5.7018   -0.4921    3.6925 H         1 UNK         0.0691 
     19 H19        -6.6811   -2.3118    5.0562 H         1 UNK         0.0706 
     20 H20        -5.1250   -2.7193    5.7398 H         1 UNK         0.0706 
     21 H21        -3.6797   -3.8440    2.5443 H         1 UNK         0.0706 
     22 H22        -3.3330   -3.6205    4.2433 H         1 UNK         0.0706 
     23 H23        -2.3637   -1.8020    2.8730 H         1 UNK         0.0691 
     24 H24        -3.9231   -1.3932    2.2014 H         1 UNK         0.0691 
     25 H25        -3.6492    0.8784    3.0670 H         1 UNK         0.0626 
     26 H26        -3.6393    1.1411    4.7912 H         1 UNK         0.0626 
     27 H27        -1.2318    0.0388    3.2569 H         1 UNK         0.0883 
     28 H28        -1.4959    1.6776    3.7000 H         1 UNK         0.0883 
     29 H29        -1.4907    0.9991    6.2019 H         1 UNK         0.1467 
     30 H30         0.0301    0.8132    5.3494 H         1 UNK         0.1467 
     31 H31         1.1998   -1.1983    6.3910 H         1 UNK         0.3980 
     32 H32        -5.3499   -4.9584    4.8923 H         1 UNK         0.0752 
     33 H33        -5.3755   -5.3627    3.2317 H         1 UNK         0.0752 
     34 H34        -7.5466   -5.8672    4.2409 H         1 UNK         0.0513 
     35 H35        -7.7275   -4.2584    4.8816 H         1 UNK         0.0513 
     36 H36        -7.5073   -3.5823    2.5895 H         1 UNK         0.4242 
@<TRIPOS>BOND
     1    1    2 1    
     2    1    6 1    
     3    1   17 1    
     4    1   18 1    
     5    2    3 1    
     6    2   19 1    
     7    2   20 1    
     8    3    4 1    
     9    3   14 1    
    10    4    5 1    
    11    4   21 1    
    12    4   22 1    
    13    5    6 1    
    14    5   23 1    
    15    5   24 1    
    16    6    7 1    
    17    7    8 1    
    18    7   25 1    
    19    7   26 1    
    20    8    9 1    
    21    8   27 1    
    22    8   28 1    
    23    9   10 1    
    24    9   29 1    
    25    9   30 1    
    26   10   11 2    
    27   10   12 2    
    28   10   13 1    
    29   13   31 1    
    30   14   15 1    
    31   14   32 1    
    32   14   33 1    
    33   15   16 1    
    34   15   34 1    
    35   15   35 1    
    36   16   36 1    
@<TRIPOS>SUBSTRUCTURE
     1 UNK         1 GROUP             0       ****    0 ROOT    
@<TRIPOS>MOLECULE
EPPS
36   36    1
SMALL
USER_CHARGES


@<TRIPOS>ATOM
      1 C1         -3.6970   -1.7479    3.2669 C.3       1 UNK         0.0986 
      2 C2         -4.3179   -3.0953    3.7293 C.3       1 UNK         0.1007 
      3 N3         -5.7357   -2.9208    4.1119 N.3       1 UNK        -0.7113 
      4 C4         -5.7917   -1.9117    5.1882 C.3       1 UNK         0.1007 
      5 C5         -5.1707   -0.5659    4.7230 C.3       1 UNK         0.0986 
      6 N6         -3.7544   -0.7444    4.3500 N.3       1 UNK        -0.7051 
      7 C7         -3.1682    0.5387    3.9487 C.3       1 UNK         0.1131 
      8 C8         -1.6260    0.5043    3.8488 C.3       1 UNK        -0.1197 
      9 C9         -0.8455    0.3302    5.1811 C.3       1 UNK        -0.2881 
     10 S10        -0.9075   -1.4136    5.8880 S.3       1 UNK         1.0110 
     11 O11        -2.0145   -1.5491    6.8412 O.2       1 UNK        -0.4915 
     12 O12        -0.6713   -2.4030    4.8312 O.2       1 UNK        -0.4915 
     13 O13         0.4733   -1.3313    6.7746 O.3       1 UNK        -0.5020 
     14 C14        -6.3593   -4.1757    4.5758 C.3       1 UNK         0.0871 
     15 C15        -6.5441   -5.2364    3.4663 C.3       1 UNK         0.1330 
     16 O16        -7.3851   -4.7214    2.4476 O.3       1 UNK        -0.6627 
     17 H17        -4.2109   -1.3891    2.3718 H         1 UNK         0.0691 
     18 H18        -2.6644   -1.9350    2.9711 H         1 UNK         0.0691 
     19 H19        -3.7338   -3.5062    4.5566 H         1 UNK         0.0706 
     20 H20        -4.2287   -3.8070    2.9077 H         1 UNK         0.0706 
     21 H21        -5.2770   -2.2638    6.0860 H         1 UNK         0.0706 
     22 H22        -6.8295   -1.7358    5.4790 H         1 UNK         0.0706 
     23 H23        -5.7495   -0.1566    3.8913 H         1 UNK         0.0691 
     24 H24        -5.2520    0.1558    5.5384 H         1 UNK         0.0691 
     25 H25        -3.6026    0.8925    3.0102 H         1 UNK         0.0626 
     26 H26        -3.4263    1.2896    4.6994 H         1 UNK         0.0626 
     27 H27        -1.2955   -0.2243    3.1077 H         1 UNK         0.0883 
     28 H28        -1.3263    1.4640    3.4239 H         1 UNK         0.0883 
     29 H29        -1.2072    0.9861    5.9696 H         1 UNK         0.1467 
     30 H30         0.2098    0.5474    5.0348 H         1 UNK         0.1467 
     31 H31         1.2114   -1.5098    6.1597 H         1 UNK         0.3980 
     32 H32        -7.3058   -4.0350    5.1033 H         1 UNK         0.0752 
     33 H33        -5.7164   -4.6165    5.3418 H         1 UNK         0.0752 
     34 H34        -5.5870   -5.5533    3.0503 H         1 UNK         0.0513 
     35 H35        -6.9997   -6.1352    3.8853 H         1 UNK         0.0513 
     36 H36        -7.0582   -3.8232    2.2729 H         1 UNK         0.4242 
@<TRIPOS>BOND
     1    1    2 1    
     2    1    6 1    
     3    1   17 1    
     4    1   18 1    
     5    2    3 1    
     6    2   19 1    
     7    2   20 1    
     8    3    4 1    
     9    3   14 1    
    10    4    5 1    
    11    4   21 1    
    12    4   22 1    
    13    5    6 1    
    14    5   23 1    
    15    5   24 1    
    16    6    7 1    
    17    7    8 1    
    18    7   25 1    
    19    7   26 1    
    20    8    9 1    
    21    8   27 1    
    22    8   28 1    
    23    9   10 1    
    24    9   29 1    
    25    9   30 1    
    26   10   11 2    
    27   10   12 2    
    28   10   13 1    
    29   13   31 1    
    30   14   15 1    
    31   14   32 1    
    32   14   33 1    
    33   15   16 1    
    34   15   34 1    
    35   15   35 1    
    36   16   36 1    
@<TRIPOS>SUBSTRUCTURE
     1 UNK         1 GROUP             0       ****    0 ROOT    
@<TRIPOS>MOLECULE
EPPS
36   36    1
SMALL
USER_CHARGES


@<TRIPOS>ATOM
      1 C1         -4.8468   -1.4870    5.3457 C.3       1 UNK         0.0986 
      2 C2         -4.9667   -2.9822    5.7586 C.3       1 UNK         0.1007 
      3 N3         -4.6941   -3.9313    4.6603 N.3       1 UNK        -0.7113 
      4 C4         -3.4836   -3.5630    3.8985 C.3       1 UNK         0.1007 
      5 C5         -3.4041   -2.0539    3.5307 C.3       1 UNK         0.0986 
      6 N6         -3.5349   -1.2040    4.7323 N.3       1 UNK        -0.7051 
      7 C7         -3.4353    0.2236    4.3996 C.3       1 UNK         0.1131 
      8 C8         -1.9938    0.6751    4.0694 C.3       1 UNK        -0.1197 
      9 C9         -0.9694    0.6470    5.2386 C.3       1 UNK        -0.2881 
     10 S10        -0.3379   -1.0697    5.6662 S.3       1 UNK         1.0110 
     11 O11         0.7300   -0.9689    6.6670 O.2       1 UNK        -0.4915 
     12 O12        -0.1557   -1.8629    4.4462 O.2       1 UNK        -0.4915 
     13 O13        -1.6756   -1.6250    6.4328 O.3       1 UNK        -0.5020 
     14 C14        -5.8555   -4.4115    3.8844 C.3       1 UNK         0.0871 
     15 C15        -6.5694   -3.3648    3.0000 C.3       1 UNK         0.1330 
     16 O16        -7.6569   -3.9756    2.3234 O.3       1 UNK        -0.6627 
     17 H17        -4.9683   -0.8782    6.2444 H         1 UNK         0.0691 
     18 H18        -5.6625   -1.1959    4.6828 H         1 UNK         0.0691 
     19 H19        -5.9608   -3.1599    6.1735 H         1 UNK         0.0706 
     20 H20        -4.2724   -3.1847    6.5765 H         1 UNK         0.0706 
     21 H21        -3.4162   -4.1575    2.9852 H         1 UNK         0.0706 
     22 H22        -2.6038   -3.8349    4.4852 H         1 UNK         0.0706 
     23 H23        -2.4411   -1.8824    3.0486 H         1 UNK         0.0691 
     24 H24        -4.1529   -1.7924    2.7825 H         1 UNK         0.0691 
     25 H25        -4.1118    0.4857    3.5818 H         1 UNK         0.0626 
     26 H26        -3.7678    0.8113    5.2591 H         1 UNK         0.0626 
     27 H27        -1.6065    0.1516    3.1946 H         1 UNK         0.0883 
     28 H28        -2.0707    1.7119    3.7370 H         1 UNK         0.0883 
     29 H29        -1.3731    1.0602    6.1603 H         1 UNK         0.1467 
     30 H30        -0.0765    1.2147    4.9863 H         1 UNK         0.1467 
     31 H31        -2.4218   -1.5199    5.7756 H         1 UNK         0.3980 
     32 H32        -6.5609   -4.8131    4.6148 H         1 UNK         0.0752 
     33 H33        -5.4854   -5.2262    3.2586 H         1 UNK         0.0752 
     34 H34        -6.9563   -2.5400    3.5975 H         1 UNK         0.0513 
     35 H35        -5.8924   -2.9476    2.2554 H         1 UNK         0.0513 
     36 H36        -8.0909   -3.3021    1.7759 H         1 UNK         0.4242 
@<TRIPOS>BOND
     1    1    2 1    
     2    1    6 1    
     3    1   17 1    
     4    1   18 1    
     5    2    3 1    
     6    2   19 1    
     7    2   20 1    
     8    3    4 1    
     9    3   14 1    
    10    4    5 1    
    11    4   21 1    
    12    4   22 1    
    13    5    6 1    
    14    5   23 1    
    15    5   24 1    
    16    6    7 1    
    17    7    8 1    
    18    7   25 1    
    19    7   26 1    
    20    8    9 1    
    21    8   27 1    
    22    8   28 1    
    23    9   10 1    
    24    9   29 1    
    25    9   30 1    
    26   10   11 2    
    27   10   12 2    
    28   10   13 1    
    29   13   31 1    
    30   14   15 1    
    31   14   32 1    
    32   14   33 1    
    33   15   16 1    
    34   15   34 1    
    35   15   35 1    
    36   16   36 1    
@<TRIPOS>SUBSTRUCTURE
     1 UNK         1 GROUP             0       ****    0 ROOT    
@<TRIPOS>MOLECULE
EPPS
36   36    1
SMALL
USER_CHARGES


@<TRIPOS>ATOM
      1 C1         -3.6608   -2.8202    5.7670 C.3       1 UNK         0.0986 
      2 C2         -5.1041   -3.0779    5.2456 C.3       1 UNK         0.1007 
      3 N3         -5.0699   -3.8301    3.9759 N.3       1 UNK        -0.7113 
      4 C4         -4.2729   -3.0860    2.9807 C.3       1 UNK         0.1007 
      5 C5         -2.8348   -2.8211    3.5160 C.3       1 UNK         0.0986 
      6 N6         -2.8204   -2.0813    4.7973 N.3       1 UNK        -0.7051 
      7 C7         -3.1745   -0.6628    4.6266 C.3       1 UNK         0.1131 
      8 C8         -2.9999    0.1660    5.9217 C.3       1 UNK        -0.1197 
      9 C9         -1.6897   -0.0247    6.7398 C.3       1 UNK        -0.2881 
     10 S10        -0.1355   -0.0874    5.6901 S.3       1 UNK         1.0110 
     11 O11         1.0524   -0.0154    6.5480 O.2       1 UNK        -0.4915 
     12 O12        -0.2740    0.7863    4.5199 O.2       1 UNK        -0.4915 
     13 O13        -0.2768   -1.6421    5.1800 O.3       1 UNK        -0.5020 
     14 C14        -6.4055   -4.2273    3.4881 C.3       1 UNK         0.0871 
     15 C15        -7.3629   -3.0577    3.1385 C.3       1 UNK         0.1330 
     16 O16        -8.6080   -3.5652    2.6843 O.3       1 UNK        -0.6627 
     17 H17        -3.1857   -3.7759    5.9986 H         1 UNK         0.0691 
     18 H18        -3.7101   -2.2921    6.7202 H         1 UNK         0.0691 
     19 H19        -5.6299   -2.1280    5.1370 H         1 UNK         0.0706 
     20 H20        -5.6546   -3.6468    5.9975 H         1 UNK         0.0706 
     21 H21        -4.7450   -2.1394    2.7135 H         1 UNK         0.0706 
     22 H22        -4.2040   -3.6636    2.0567 H         1 UNK         0.0706 
     23 H23        -2.3142   -3.7732    3.6408 H         1 UNK         0.0691 
     24 H24        -2.2631   -2.2782    2.7603 H         1 UNK         0.0691 
     25 H25        -2.5638   -0.2222    3.8356 H         1 UNK         0.0626 
     26 H26        -4.2079   -0.5718    4.2861 H         1 UNK         0.0626 
     27 H27        -3.0673    1.2160    5.6304 H         1 UNK         0.0883 
     28 H28        -3.8726    0.0323    6.5629 H         1 UNK         0.0883 
     29 H29        -1.6955   -0.9401    7.3269 H         1 UNK         0.1467 
     30 H30        -1.5371    0.8013    7.4309 H         1 UNK         0.1467 
     31 H31        -1.2435   -1.7944    4.9896 H         1 UNK         0.3980 
     32 H32        -6.8460   -4.8392    4.2784 H         1 UNK         0.0752 
     33 H33        -6.2336   -4.8454    2.6044 H         1 UNK         0.0752 
     34 H34        -7.5480   -2.4303    4.0113 H         1 UNK         0.0513 
     35 H35        -6.9419   -2.4141    2.3650 H         1 UNK         0.0513 
     36 H36        -8.4815   -3.9350    1.7964 H         1 UNK         0.4242 
@<TRIPOS>BOND
     1    1    2 1    
     2    1    6 1    
     3    1   17 1    
     4    1   18 1    
     5    2    3 1    
     6    2   19 1    
     7    2   20 1    
     8    3    4 1    
     9    3   14 1    
    10    4    5 1    
    11    4   21 1    
    12    4   22 1    
    13    5    6 1    
    14    5   23 1    
    15    5   24 1    
    16    6    7 1    
    17    7    8 1    
    18    7   25 1    
    19    7   26 1    
    20    8    9 1    
    21    8   27 1    
    22    8   28 1    
    23    9   10 1    
    24    9   29 1    
    25    9   30 1    
    26   10   11 2    
    27   10   12 2    
    28   10   13 1    
    29   13   31 1    
    30   14   15 1    
    31   14   32 1    
    32   14   33 1    
    33   15   16 1    
    34   15   34 1    
    35   15   35 1    
    36   16   36 1    
@<TRIPOS>SUBSTRUCTURE
     1 UNK         1 GROUP             0       ****    0 ROOT    
@<TRIPOS>MOLECULE
EPPS
36   36    1
SMALL
USER_CHARGES


@<TRIPOS>ATOM
      1 C1         -4.7873   -0.5790    4.4913 C.3       1 UNK         0.0986 
      2 C2         -5.8530   -1.6285    4.9129 C.3       1 UNK         0.1007 
      3 N3         -6.0434   -2.6470    3.8589 N.3       1 UNK        -0.7113 
      4 C4         -4.7323   -3.2935    3.6382 C.3       1 UNK         0.1007 
      5 C5         -3.6642   -2.2495    3.2091 C.3       1 UNK         0.0986 
      6 N6         -3.4794   -1.2242    4.2542 N.3       1 UNK        -0.7051 
      7 C7         -2.4492   -0.2635    3.8326 C.3       1 UNK         0.1131 
      8 C8         -2.0630    0.7348    4.9485 C.3       1 UNK        -0.1197 
      9 C9         -1.6414    0.1223    6.3124 C.3       1 UNK        -0.2881 
     10 S10        -0.0178   -0.8239    6.2471 S.3       1 UNK         1.0110 
     11 O11         0.3075   -1.3203    7.5883 O.2       1 UNK        -0.4915 
     12 O12         0.9695   -0.0816    5.4548 O.2       1 UNK        -0.4915 
     13 O13        -0.5056   -2.1155    5.3581 O.3       1 UNK        -0.5020 
     14 C14        -7.0640   -3.6296    4.2717 C.3       1 UNK         0.0871 
     15 C15        -7.8144   -4.3156    3.1046 C.3       1 UNK         0.1330 
     16 O16        -7.0008   -5.2040    2.3551 O.3       1 UNK        -0.6627 
     17 H17        -4.7055    0.1597    5.2898 H         1 UNK         0.0691 
     18 H18        -5.1264   -0.0379    3.6046 H         1 UNK         0.0691 
     19 H19        -6.7940   -1.1074    5.1010 H         1 UNK         0.0706 
     20 H20        -5.5643   -2.0897    5.8609 H         1 UNK         0.0706 
     21 H21        -4.7979   -4.0512    2.8583 H         1 UNK         0.0706 
     22 H22        -4.3965   -3.8160    4.5375 H         1 UNK         0.0706 
     23 H23        -2.7203   -2.7682    3.0286 H         1 UNK         0.0691 
     24 H24        -3.9512   -1.7950    2.2575 H         1 UNK         0.0691 
     25 H25        -1.5514   -0.8017    3.5217 H         1 UNK         0.0626 
     26 H26        -2.7883    0.2869    2.9512 H         1 UNK         0.0626 
     27 H27        -1.2426    1.3492    4.5730 H         1 UNK         0.0883 
     28 H28        -2.8704    1.4555    5.0848 H         1 UNK         0.0883 
     29 H29        -2.3854   -0.5686    6.7018 H         1 UNK         0.1467 
     30 H30        -1.4882    0.8970    7.0600 H         1 UNK         0.1467 
     31 H31        -1.1615   -2.5982    5.8958 H         1 UNK         0.3980 
     32 H32        -7.8519   -3.0700    4.7819 H         1 UNK         0.0752 
     33 H33        -6.7535   -4.3414    5.0403 H         1 UNK         0.0752 
     34 H34        -8.6538   -4.8833    3.5101 H         1 UNK         0.0513 
     35 H35        -8.2604   -3.5660    2.4478 H         1 UNK         0.0513 
     36 H36        -6.3621   -4.6595    1.8714 H         1 UNK         0.4242 
@<TRIPOS>BOND
     1    1    2 1    
     2    1    6 1    
     3    1   17 1    
     4    1   18 1    
     5    2    3 1    
     6    2   19 1    
     7    2   20 1    
     8    3    4 1    
     9    3   14 1    
    10    4    5 1    
    11    4   21 1    
    12    4   22 1    
    13    5    6 1    
    14    5   23 1    
    15    5   24 1    
    16    6    7 1    
    17    7    8 1    
    18    7   25 1    
    19    7   26 1    
    20    8    9 1    
    21    8   27 1    
    22    8   28 1    
    23    9   10 1    
    24    9   29 1    
    25    9   30 1    
    26   10   11 2    
    27   10   12 2    
    28   10   13 1    
    29   13   31 1    
    30   14   15 1    
    31   14   32 1    
    32   14   33 1    
    33   15   16 1    
    34   15   34 1    
    35   15   35 1    
    36   16   36 1    
@<TRIPOS>SUBSTRUCTURE
     1 UNK         1 GROUP             0       ****    0 ROOT    
@<TRIPOS>MOLECULE
EPPS
36   36    1
SMALL
USER_CHARGES


@<TRIPOS>ATOM
      1 C1         -4.8080   -1.5253    5.6519 C.3       1 UNK         0.0986 
      2 C2         -5.3556   -2.9703    5.4904 C.3       1 UNK         0.1007 
      3 N3         -5.8764   -3.1901    4.1248 N.3       1 UNK        -0.7113 
      4 C4         -4.7575   -2.9474    3.1895 C.3       1 UNK         0.1007 
      5 C5         -4.2067   -1.5021    3.3424 C.3       1 UNK         0.0986 
      6 N6         -3.6991   -1.2745    4.7112 N.3       1 UNK        -0.7051 
      7 C7         -3.1864    0.0908    4.8992 C.3       1 UNK         0.1131 
      8 C8         -1.9023    0.3697    4.0842 C.3       1 UNK        -0.1197 
      9 C9         -0.7292   -0.6309    4.2735 C.3       1 UNK        -0.2881 
     10 S10         0.0424   -0.5763    5.9874 S.3       1 UNK         1.0110 
     11 O11         0.2031    0.8147    6.4264 O.2       1 UNK        -0.4915 
     12 O12         1.1621   -1.5218    6.0445 O.2       1 UNK        -0.4915 
     13 O13        -1.1913   -1.2345    6.8485 O.3       1 UNK        -0.5020 
     14 C14        -6.4014   -4.5625    3.9891 C.3       1 UNK         0.0871 
     15 C15        -7.5119   -4.7299    2.9240 C.3       1 UNK         0.1330 
     16 O16        -7.0438   -4.5811    1.5929 O.3       1 UNK        -0.6627 
     17 H17        -4.4594   -1.3958    6.6787 H         1 UNK         0.0691 
     18 H18        -5.6170   -0.8045    5.5093 H         1 UNK         0.0691 
     19 H19        -6.1528   -3.1205    6.2215 H         1 UNK         0.0706 
     20 H20        -4.5742   -3.6936    5.7371 H         1 UNK         0.0706 
     21 H21        -5.0774   -3.0805    2.1567 H         1 UNK         0.0706 
     22 H22        -3.9505   -3.6671    3.3490 H         1 UNK         0.0706 
     23 H23        -3.4052   -1.3665    2.6148 H         1 UNK         0.0691 
     24 H24        -4.9825   -0.7771    3.0845 H         1 UNK         0.0691 
     25 H25        -3.9552    0.8201    4.6310 H         1 UNK         0.0626 
     26 H26        -2.9705    0.2590    5.9562 H         1 UNK         0.0626 
     27 H27        -2.1576    0.4663    3.0281 H         1 UNK         0.0883 
     28 H28        -1.5542    1.3701    4.3479 H         1 UNK         0.0883 
     29 H29         0.0867   -0.4134    3.5881 H         1 UNK         0.1467 
     30 H30        -1.0346   -1.6609    4.1055 H         1 UNK         0.1467 
     31 H31        -1.2871   -2.1575    6.5462 H         1 UNK         0.3980 
     32 H32        -6.9140   -4.7980    4.9250 H         1 UNK         0.0752 
     33 H33        -5.6506   -5.3542    3.9332 H         1 UNK         0.0752 
     34 H34        -7.9477   -5.7257    3.0220 H         1 UNK         0.0513 
     35 H35        -8.3306   -4.0338    3.1169 H         1 UNK         0.0513 
     36 H36        -6.8132   -3.6472    1.4793 H         1 UNK         0.4242 
@<TRIPOS>BOND
     1    1    2 1    
     2    1    6 1    
     3    1   17 1    
     4    1   18 1    
     5    2    3 1    
     6    2   19 1    
     7    2   20 1    
     8    3    4 1    
     9    3   14 1    
    10    4    5 1    
    11    4   21 1    
    12    4   22 1    
    13    5    6 1    
    14    5   23 1    
    15    5   24 1    
    16    6    7 1    
    17    7    8 1    
    18    7   25 1    
    19    7   26 1    
    20    8    9 1    
    21    8   27 1    
    22    8   28 1    
    23    9   10 1    
    24    9   29 1    
    25    9   30 1    
    26   10   11 2    
    27   10   12 2    
    28   10   13 1    
    29   13   31 1    
    30   14   15 1    
    31   14   32 1    
    32   14   33 1    
    33   15   16 1    
    34   15   34 1    
    35   15   35 1    
    36   16   36 1    
@<TRIPOS>SUBSTRUCTURE
     1 UNK         1 GROUP             0       ****    0 ROOT    
@<TRIPOS>MOLECULE
EPPS
36   36    1
SMALL
USER_CHARGES


@<TRIPOS>ATOM
      1 C1         -4.8369   -1.2656    4.2366 C.3       1 UNK         0.0986 
      2 C2         -5.5698   -2.6342    4.3127 C.3       1 UNK         0.1007 
      3 N3         -5.4615   -3.3663    3.0328 N.3       1 UNK        -0.7113 
      4 C4         -4.0208   -3.5583    2.7639 C.3       1 UNK         0.1007 
      5 C5         -3.2831   -2.1937    2.6796 C.3       1 UNK         0.0986 
      6 N6         -3.3997   -1.4536    3.9508 N.3       1 UNK        -0.7051 
      7 C7         -2.6745   -0.1788    3.8561 C.3       1 UNK         0.1131 
      8 C8         -2.5606    0.5488    5.2158 C.3       1 UNK        -0.1197 
      9 C9         -1.9070   -0.2614    6.3666 C.3       1 UNK        -0.2881 
     10 S10        -0.0885   -0.6136    6.0613 S.3       1 UNK         1.0110 
     11 O11         0.6542    0.6496    5.9868 O.2       1 UNK        -0.4915 
     12 O12         0.0698   -1.6525    5.0387 O.2       1 UNK        -0.4915 
     13 O13         0.2512   -1.3041    7.5126 O.3       1 UNK        -0.5020 
     14 C14        -6.1503   -4.6696    3.1005 C.3       1 UNK         0.0871 
     15 C15        -7.6518   -4.6303    2.7267 C.3       1 UNK         0.1330 
     16 O16        -8.4531   -3.9510    3.6804 O.3       1 UNK        -0.6627 
     17 H17        -4.9694   -0.7580    5.1929 H         1 UNK         0.0691 
     18 H18        -5.3083   -0.6304    3.4827 H         1 UNK         0.0691 
     19 H19        -6.6125   -2.4464    4.5666 H         1 UNK         0.0706 
     20 H20        -5.1617   -3.2243    5.1372 H         1 UNK         0.0706 
     21 H21        -3.8857   -4.0824    1.8155 H         1 UNK         0.0706 
     22 H22        -3.5555   -4.1854    3.5287 H         1 UNK         0.0706 
     23 H23        -2.2308   -2.3788    2.4540 H         1 UNK         0.0691 
     24 H24        -3.6783   -1.6091    1.8450 H         1 UNK         0.0691 
     25 H25        -1.6655   -0.3679    3.4834 H         1 UNK         0.0626 
     26 H26        -3.1501    0.4771    3.1224 H         1 UNK         0.0626 
     27 H27        -1.9794    1.4592    5.0572 H         1 UNK         0.0883 
     28 H28        -3.5395    0.9245    5.5161 H         1 UNK         0.0883 
     29 H29        -2.3848   -1.2274    6.5127 H         1 UNK         0.1467 
     30 H30        -1.9471    0.2773    7.3105 H         1 UNK         0.1467 
     31 H31        -0.0577   -2.2296    7.4603 H         1 UNK         0.3980 
     32 H32        -5.9625   -5.2591    4.0010 H         1 UNK         0.0752 
     33 H33        -5.7138   -5.2977    2.3199 H         1 UNK         0.0752 
     34 H34        -7.7849   -4.1880    1.7374 H         1 UNK         0.0513 
     35 H35        -8.0207   -5.6538    2.6398 H         1 UNK         0.0513 
     36 H36        -8.2223   -3.0120    3.6231 H         1 UNK         0.4242 
@<TRIPOS>BOND
     1    1    2 1    
     2    1    6 1    
     3    1   17 1    
     4    1   18 1    
     5    2    3 1    
     6    2   19 1    
     7    2   20 1    
     8    3    4 1    
     9    3   14 1    
    10    4    5 1    
    11    4   21 1    
    12    4   22 1    
    13    5    6 1    
    14    5   23 1    
    15    5   24 1    
    16    6    7 1    
    17    7    8 1    
    18    7   25 1    
    19    7   26 1    
    20    8    9 1    
    21    8   27 1    
    22    8   28 1    
    23    9   10 1    
    24    9   29 1    
    25    9   30 1    
    26   10   11 2    
    27   10   12 2    
    28   10   13 1    
    29   13   31 1    
    30   14   15 1    
    31   14   32 1    
    32   14   33 1    
    33   15   16 1    
    34   15   34 1    
    35   15   35 1    
    36   16   36 1    
@<TRIPOS>SUBSTRUCTURE
     1 UNK         1 GROUP             0       ****    0 ROOT    
@<TRIPOS>MOLECULE
EPPS
36   36    1
SMALL
USER_CHARGES


@<TRIPOS>ATOM
      1 C1         -4.7205   -1.4719    5.5281 C.3       1 UNK         0.0986 
      2 C2         -5.2580   -2.9203    5.3657 C.3       1 UNK         0.1007 
      3 N3         -5.6868   -3.1733    3.9762 N.3       1 UNK        -0.7113 
      4 C4         -4.5302   -2.9327    3.0879 C.3       1 UNK         0.1007 
      5 C5         -3.9867   -1.4864    3.2569 C.3       1 UNK         0.0986 
      6 N6         -3.5579   -1.2390    4.6493 N.3       1 UNK        -0.7051 
      7 C7         -3.0535    0.1284    4.8448 C.3       1 UNK         0.1131 
      8 C8         -1.7232    0.3922    4.1019 C.3       1 UNK        -0.1197 
      9 C9         -0.5649   -0.6055    4.3775 C.3       1 UNK        -0.2881 
     10 S10         0.1073   -0.5179    6.1315 S.3       1 UNK         1.0110 
     11 O11         0.2451    0.8813    6.5517 O.2       1 UNK        -0.4915 
     12 O12         1.2203   -1.4628    6.2712 O.2       1 UNK        -0.4915 
     13 O13        -1.1749   -1.1584    6.9330 O.3       1 UNK        -0.5020 
     14 C14        -6.2257   -4.5431    3.8621 C.3       1 UNK         0.0871 
     15 C15        -6.8346   -4.9207    2.4872 C.3       1 UNK         0.1330 
     16 O16        -8.0204   -4.1891    2.2018 O.3       1 UNK        -0.6627 
     17 H17        -4.4331   -1.3206    6.5707 H         1 UNK         0.0691 
     18 H18        -5.5196   -0.7549    5.3234 H         1 UNK         0.0691 
     19 H19        -6.1019   -3.0580    6.0450 H         1 UNK         0.0706 
     20 H20        -4.4928   -3.6351    5.6784 H         1 UNK         0.0706 
     21 H21        -4.8214   -3.0604    2.0447 H         1 UNK         0.0706 
     22 H22        -3.7315   -3.6541    3.2763 H         1 UNK         0.0706 
     23 H23        -3.1448   -1.3605    2.5747 H         1 UNK         0.0691 
     24 H24        -4.7453   -0.7643    2.9449 H         1 UNK         0.0691 
     25 H25        -3.8034    0.8547    4.5208 H         1 UNK         0.0626 
     26 H26        -2.8992    0.3133    5.9098 H         1 UNK         0.0626 
     27 H27        -1.9156    0.4703    3.0311 H         1 UNK         0.0883 
     28 H28        -1.3896    1.3969    4.3680 H         1 UNK         0.0883 
     29 H29         0.2894   -0.4022    3.7360 H         1 UNK         0.1467 
     30 H30        -0.8621   -1.6384    4.2126 H         1 UNK         0.1467 
     31 H31        -1.2523   -2.0882    6.6467 H         1 UNK         0.3980 
     32 H32        -6.9246   -4.8149    4.6564 H         1 UNK         0.0752 
     33 H33        -5.3935   -5.2317    4.0287 H         1 UNK         0.0752 
     34 H34        -6.1109   -4.8067    1.6793 H         1 UNK         0.0513 
     35 H35        -7.0846   -5.9832    2.4941 H         1 UNK         0.0513 
     36 H36        -8.3454   -4.4687    1.3318 H         1 UNK         0.4242 
@<TRIPOS>BOND
     1    1    2 1    
     2    1    6 1    
     3    1   17 1    
     4    1   18 1    
     5    2    3 1    
     6    2   19 1    
     7    2   20 1    
     8    3    4 1    
     9    3   14 1    
    10    4    5 1    
    11    4   21 1    
    12    4   22 1    
    13    5    6 1    
    14    5   23 1    
    15    5   24 1    
    16    6    7 1    
    17    7    8 1    
    18    7   25 1    
    19    7   26 1    
    20    8    9 1    
    21    8   27 1    
    22    8   28 1    
    23    9   10 1    
    24    9   29 1    
    25    9   30 1    
    26   10   11 2    
    27   10   12 2    
    28   10   13 1    
    29   13   31 1    
    30   14   15 1    
    31   14   32 1    
    32   14   33 1    
    33   15   16 1    
    34   15   34 1    
    35   15   35 1    
    36   16   36 1    
@<TRIPOS>SUBSTRUCTURE
     1 UNK         1 GROUP             0       ****    0 ROOT    
@<TRIPOS>MOLECULE
EPPS
36   36    1
SMALL
USER_CHARGES


@<TRIPOS>ATOM
      1 C1         -4.6979   -0.6627    4.5293 C.3       1 UNK         0.0986 
      2 C2         -5.7134   -1.7637    4.9422 C.3       1 UNK         0.1007 
      3 N3         -5.8477   -2.7868    3.8868 N.3       1 UNK        -0.7113 
      4 C4         -4.5108   -3.3646    3.6351 C.3       1 UNK         0.1007 
      5 C5         -3.4958   -2.2611    3.2266 C.3       1 UNK         0.0986 
      6 N6         -3.3608   -1.2432    4.2868 N.3       1 UNK        -0.7051 
      7 C7         -2.3762   -0.2295    3.8800 C.3       1 UNK         0.1131 
      8 C8         -2.0375    0.7701    5.0101 C.3       1 UNK        -0.1197 
      9 C9         -1.5869    0.1589    6.3653 C.3       1 UNK        -0.2881 
     10 S10         0.0816   -0.7047    6.2881 S.3       1 UNK         1.0110 
     11 O11         1.0312    0.0972    5.5080 O.2       1 UNK        -0.4915 
     12 O12         0.4305   -1.2042    7.6223 O.2       1 UNK        -0.4915 
     13 O13        -0.3413   -2.0056    5.3796 O.3       1 UNK        -0.5020 
     14 C14        -6.8442   -3.7969    4.2948 C.3       1 UNK         0.0871 
     15 C15        -7.1922   -4.8735    3.2349 C.3       1 UNK         0.1330 
     16 O16        -7.8740   -4.3270    2.1128 O.3       1 UNK        -0.6627 
     17 H17        -4.6509    0.0723    5.3340 H         1 UNK         0.0691 
     18 H18        -5.0622   -0.1304    3.6473 H         1 UNK         0.0691 
     19 H19        -6.6815   -1.2939    5.1280 H         1 UNK         0.0706 
     20 H20        -5.4044   -2.2132    5.8893 H         1 UNK         0.0706 
     21 H21        -4.5591   -4.0916    2.8237 H         1 UNK         0.0706 
     22 H22        -4.1424   -3.9034    4.5114 H         1 UNK         0.0706 
     23 H23        -2.5275   -2.7298    3.0386 H         1 UNK         0.0691 
     24 H24        -3.8043   -1.8067    2.2817 H         1 UNK         0.0691 
     25 H25        -2.7399    0.3168    3.0059 H         1 UNK         0.0626 
     26 H26        -1.4541   -0.7208    3.5629 H         1 UNK         0.0626 
     27 H27        -1.2472    1.4279    4.6437 H         1 UNK         0.0883 
     28 H28        -2.8779    1.4498    5.1563 H         1 UNK         0.0883 
     29 H29        -2.2960   -0.5737    6.7435 H         1 UNK         0.1467 
     30 H30        -1.4727    0.9290    7.1246 H         1 UNK         0.1467 
     31 H31        -0.9688   -2.5306    5.9115 H         1 UNK         0.3980 
     32 H32        -7.7664   -3.3749    4.7008 H         1 UNK         0.0752 
     33 H33        -6.4279   -4.3327    5.1515 H         1 UNK         0.0752 
     34 H34        -6.3080   -5.4254    2.9138 H         1 UNK         0.0513 
     35 H35        -7.8403   -5.6219    3.6946 H         1 UNK         0.0513 
     36 H36        -8.0583   -5.0481    1.4910 H         1 UNK         0.4242 
@<TRIPOS>BOND
     1    1    2 1    
     2    1    6 1    
     3    1   17 1    
     4    1   18 1    
     5    2    3 1    
     6    2   19 1    
     7    2   20 1    
     8    3    4 1    
     9    3   14 1    
    10    4    5 1    
    11    4   21 1    
    12    4   22 1    
    13    5    6 1    
    14    5   23 1    
    15    5   24 1    
    16    6    7 1    
    17    7    8 1    
    18    7   25 1    
    19    7   26 1    
    20    8    9 1    
    21    8   27 1    
    22    8   28 1    
    23    9   10 1    
    24    9   29 1    
    25    9   30 1    
    26   10   11 2    
    27   10   12 2    
    28   10   13 1    
    29   13   31 1    
    30   14   15 1    
    31   14   32 1    
    32   14   33 1    
    33   15   16 1    
    34   15   34 1    
    35   15   35 1    
    36   16   36 1    
@<TRIPOS>SUBSTRUCTURE
     1 UNK         1 GROUP             0       ****    0 ROOT    
@<TRIPOS>MOLECULE
EPPS
36   36    1
SMALL
USER_CHARGES


@<TRIPOS>ATOM
      1 C1         -4.5939   -0.3430    4.0609 C.3       1 UNK         0.0986 
      2 C2         -5.8125   -1.2419    4.4073 C.3       1 UNK         0.1007 
      3 N3         -5.9783   -2.3233    3.4148 N.3       1 UNK        -0.7113 
      4 C4         -4.7286   -3.1108    3.3913 C.3       1 UNK         0.1007 
      5 C5         -3.5053   -2.2127    3.0561 C.3       1 UNK         0.0986 
      6 N6         -3.3461   -1.1336    4.0501 N.3       1 UNK        -0.7051 
      7 C7         -2.1694   -0.3182    3.7140 C.3       1 UNK         0.1131 
      8 C8         -1.8232    0.7200    4.8065 C.3       1 UNK        -0.1197 
      9 C9         -1.6516    0.1760    6.2515 C.3       1 UNK        -0.2881 
     10 S10        -0.1453   -0.9282    6.4700 S.3       1 UNK         1.0110 
     11 O11         1.0109   -0.3510    5.7748 O.2       1 UNK        -0.4915 
     12 O12        -0.0526   -1.3487    7.8720 O.2       1 UNK        -0.4915 
     13 O13        -0.6508   -2.2305    5.6066 O.3       1 UNK        -0.5020 
     14 C14        -7.1590   -3.1380    3.7612 C.3       1 UNK         0.0871 
     15 C15        -7.6059   -4.1866    2.7093 C.3       1 UNK         0.1330 
     16 O16        -6.7916   -5.3524    2.6793 O.3       1 UNK        -0.6627 
     17 H17        -4.5341    0.4486    4.8090 H         1 UNK         0.0691 
     18 H18        -4.7554    0.1525    3.1005 H         1 UNK         0.0691 
     19 H19        -6.7083   -0.6179    4.4319 H         1 UNK         0.0706 
     20 H20        -5.6952   -1.6479    5.4152 H         1 UNK         0.0706 
     21 H21        -4.7857   -3.8838    2.6250 H         1 UNK         0.0706 
     22 H22        -4.5686   -3.6261    4.3413 H         1 UNK         0.0706 
     23 H23        -2.6089   -2.8362    3.0410 H         1 UNK         0.0691 
     24 H24        -3.6117   -1.8059    2.0473 H         1 UNK         0.0691 
     25 H25        -2.3275    0.1932    2.7610 H         1 UNK         0.0626 
     26 H26        -1.3043   -0.9674    3.5649 H         1 UNK         0.0626 
     27 H27        -0.8984    1.2175    4.5085 H         1 UNK         0.0883 
     28 H28        -2.5569    1.5268    4.7850 H         1 UNK         0.0883 
     29 H29        -2.5103   -0.4059    6.5777 H         1 UNK         0.1467 
     30 H30        -1.5140    0.9872    6.9626 H         1 UNK         0.1467 
     31 H31        -1.4167   -2.6052    6.0812 H         1 UNK         0.3980 
     32 H32        -7.9905   -2.4299    3.7934 H         1 UNK         0.0752 
     33 H33        -7.1572   -3.5549    4.7710 H         1 UNK         0.0752 
     34 H34        -8.6292   -4.4957    2.9304 H         1 UNK         0.0513 
     35 H35        -7.6487   -3.7314    1.7180 H         1 UNK         0.0513 
     36 H36        -6.9425   -5.8482    3.4984 H         1 UNK         0.4242 
@<TRIPOS>BOND
     1    1    2 1    
     2    1    6 1    
     3    1   17 1    
     4    1   18 1    
     5    2    3 1    
     6    2   19 1    
     7    2   20 1    
     8    3    4 1    
     9    3   14 1    
    10    4    5 1    
    11    4   21 1    
    12    4   22 1    
    13    5    6 1    
    14    5   23 1    
    15    5   24 1    
    16    6    7 1    
    17    7    8 1    
    18    7   25 1    
    19    7   26 1    
    20    8    9 1    
    21    8   27 1    
    22    8   28 1    
    23    9   10 1    
    24    9   29 1    
    25    9   30 1    
    26   10   11 2    
    27   10   12 2    
    28   10   13 1    
    29   13   31 1    
    30   14   15 1    
    31   14   32 1    
    32   14   33 1    
    33   15   16 1    
    34   15   34 1    
    35   15   35 1    
    36   16   36 1    
@<TRIPOS>SUBSTRUCTURE
     1 UNK         1 GROUP             0       ****    0 ROOT    
@<TRIPOS>MOLECULE
EPPS
36   36    1
SMALL
USER_CHARGES


@<TRIPOS>ATOM
      1 C1         -3.4445   -1.2968    2.6377 C.3       1 UNK         0.0986 
      2 C2         -4.0319   -2.6906    2.2841 C.3       1 UNK         0.1007 
      3 N3         -5.4184   -2.8265    2.7753 N.3       1 UNK        -0.7113 
      4 C4         -5.4029   -2.6137    4.2371 C.3       1 UNK         0.1007 
      5 C5         -4.8052   -1.2245    4.5958 C.3       1 UNK         0.0986 
      6 N6         -3.4211   -1.0943    4.1008 N.3       1 UNK        -0.7051 
      7 C7         -2.8811    0.2212    4.4756 C.3       1 UNK         0.1131 
      8 C8         -1.3751    0.3680    4.1569 C.3       1 UNK        -0.1197 
      9 C9         -0.4356   -0.7334    4.7202 C.3       1 UNK        -0.2881 
     10 S10        -0.2960   -0.7224    6.5953 S.3       1 UNK         1.0110 
     11 O11         0.6407   -1.7692    7.0172 O.2       1 UNK        -0.4915 
     12 O12        -0.1629    0.6545    7.0852 O.2       1 UNK        -0.4915 
     13 O13        -1.8069   -1.2446    6.9713 O.3       1 UNK        -0.5020 
     14 C14        -5.9512   -4.1498    2.3973 C.3       1 UNK         0.0871 
     15 C15        -7.4643   -4.3810    2.6480 C.3       1 UNK         0.1330 
     16 O16        -7.7896   -4.6233    4.0113 O.3       1 UNK        -0.6627 
     17 H17        -4.0186   -0.5116    2.1398 H         1 UNK         0.0691 
     18 H18        -2.4335   -1.2429    2.2317 H         1 UNK         0.0691 
     19 H19        -3.3907   -3.4748    2.6946 H         1 UNK         0.0706 
     20 H20        -4.0071   -2.8127    1.1992 H         1 UNK         0.0706 
     21 H21        -4.8478   -3.4054    4.7457 H         1 UNK         0.0706 
     22 H22        -6.4183   -2.6439    4.6322 H         1 UNK         0.0706 
     23 H23        -5.4431   -0.4335    4.1934 H         1 UNK         0.0691 
     24 H24        -4.8219   -1.1076    5.6814 H         1 UNK         0.0691 
     25 H25        -3.4402    1.0133    3.9708 H         1 UNK         0.0626 
     26 H26        -3.0279    0.3867    5.5448 H         1 UNK         0.0626 
     27 H27        -1.2417    0.4718    3.0793 H         1 UNK         0.0883 
     28 H28        -1.0486    1.3359    4.5416 H         1 UNK         0.0883 
     29 H29         0.5820   -0.6036    4.3594 H         1 UNK         0.1467 
     30 H30        -0.7588   -1.7335    4.4411 H         1 UNK         0.1467 
     31 H31        -1.8817   -2.1589    6.6384 H         1 UNK         0.3980 
     32 H32        -5.3530   -5.0035    2.7243 H         1 UNK         0.0752 
     33 H33        -5.8575   -4.1912    1.3095 H         1 UNK         0.0752 
     34 H34        -8.0427   -3.5374    2.2669 H         1 UNK         0.0513 
     35 H35        -7.7918   -5.2437    2.0648 H         1 UNK         0.0513 
     36 H36        -7.4346   -5.4909    4.2577 H         1 UNK         0.4242 
@<TRIPOS>BOND
     1    1    2 1    
     2    1    6 1    
     3    1   17 1    
     4    1   18 1    
     5    2    3 1    
     6    2   19 1    
     7    2   20 1    
     8    3    4 1    
     9    3   14 1    
    10    4    5 1    
    11    4   21 1    
    12    4   22 1    
    13    5    6 1    
    14    5   23 1    
    15    5   24 1    
    16    6    7 1    
    17    7    8 1    
    18    7   25 1    
    19    7   26 1    
    20    8    9 1    
    21    8   27 1    
    22    8   28 1    
    23    9   10 1    
    24    9   29 1    
    25    9   30 1    
    26   10   11 2    
    27   10   12 2    
    28   10   13 1    
    29   13   31 1    
    30   14   15 1    
    31   14   32 1    
    32   14   33 1    
    33   15   16 1    
    34   15   34 1    
    35   15   35 1    
    36   16   36 1    
@<TRIPOS>SUBSTRUCTURE
     1 UNK         1 GROUP             0       ****    0 ROOT    
@<TRIPOS>MOLECULE
EPPS
36   36    1
SMALL
USER_CHARGES


@<TRIPOS>ATOM
      1 C1         -3.3494   -2.0927    2.7898 C.3       1 UNK         0.0986 
      2 C2         -4.0863   -3.4555    2.9002 C.3       1 UNK         0.1007 
      3 N3         -5.4987   -3.2643    3.2839 N.3       1 UNK        -0.7113 
      4 C4         -5.5300   -2.5382    4.5709 C.3       1 UNK         0.1007 
      5 C5         -4.7849   -1.1782    4.4644 C.3       1 UNK         0.0986 
      6 N6         -3.3720   -1.3752    4.0791 N.3       1 UNK        -0.7051 
      7 C7         -2.6415   -0.1055    3.9572 C.3       1 UNK         0.1131 
      8 C8         -2.4316    0.5997    5.3172 C.3       1 UNK        -0.1197 
      9 C9         -1.7149   -0.2350    6.4116 C.3       1 UNK        -0.2881 
     10 S10         0.0764   -0.6007    5.9854 S.3       1 UNK         1.0110 
     11 O11         0.1576   -1.6233    4.9378 O.2       1 UNK        -0.4915 
     12 O12         0.8272    0.6559    5.8848 O.2       1 UNK        -0.4915 
     13 O13         0.4995   -1.3196    7.4005 O.3       1 UNK        -0.5020 
     14 C14        -6.1806   -4.5725    3.3439 C.3       1 UNK         0.0871 
     15 C15        -7.7065   -4.5309    3.6150 C.3       1 UNK         0.1330 
     16 O16        -8.4313   -3.9491    2.5384 O.3       1 UNK        -0.6627 
     17 H17        -3.7988   -1.4910    1.9957 H         1 UNK         0.0691 
     18 H18        -2.3167   -2.2780    2.4871 H         1 UNK         0.0691 
     19 H19        -3.5671   -4.0986    3.6154 H         1 UNK         0.0706 
     20 H20        -4.0297   -3.9628    1.9348 H         1 UNK         0.0706 
     21 H21        -5.0942   -3.1387    5.3730 H         1 UNK         0.0706 
     22 H22        -6.5600   -2.3327    4.8644 H         1 UNK         0.0706 
     23 H23        -5.2988   -0.5261    3.7539 H         1 UNK         0.0691 
     24 H24        -4.8466   -0.6837    5.4347 H         1 UNK         0.0691 
     25 H25        -3.1575    0.5663    3.2664 H         1 UNK         0.0626 
     26 H26        -1.6610   -0.2978    3.5164 H         1 UNK         0.0626 
     27 H27        -1.8511    1.5060    5.1347 H         1 UNK         0.0883 
     28 H28        -3.3844    0.9818    5.6855 H         1 UNK         0.0883 
     29 H29        -2.1930   -1.1984    6.5733 H         1 UNK         0.1467 
     30 H30        -1.6888    0.2891    7.3641 H         1 UNK         0.1467 
     31 H31         0.1772   -2.2407    7.3526 H         1 UNK         0.3980 
     32 H32        -5.7367   -5.1296    4.1729 H         1 UNK         0.0752 
     33 H33        -5.9810   -5.2190    2.4864 H         1 UNK         0.0752 
     34 H34        -8.0661   -5.5521    3.7536 H         1 UNK         0.0513 
     35 H35        -7.9373   -4.0213    4.5512 H         1 UNK         0.0513 
     36 H36        -9.3725   -3.9507    2.7725 H         1 UNK         0.4242 
@<TRIPOS>BOND
     1    1    2 1    
     2    1    6 1    
     3    1   17 1    
     4    1   18 1    
     5    2    3 1    
     6    2   19 1    
     7    2   20 1    
     8    3    4 1    
     9    3   14 1    
    10    4    5 1    
    11    4   21 1    
    12    4   22 1    
    13    5    6 1    
    14    5   23 1    
    15    5   24 1    
    16    6    7 1    
    17    7    8 1    
    18    7   25 1    
    19    7   26 1    
    20    8    9 1    
    21    8   27 1    
    22    8   28 1    
    23    9   10 1    
    24    9   29 1    
    25    9   30 1    
    26   10   11 2    
    27   10   12 2    
    28   10   13 1    
    29   13   31 1    
    30   14   15 1    
    31   14   32 1    
    32   14   33 1    
    33   15   16 1    
    34   15   34 1    
    35   15   35 1    
    36   16   36 1    
@<TRIPOS>SUBSTRUCTURE
     1 UNK         1 GROUP             0       ****    0 ROOT    
@<TRIPOS>MOLECULE
EPPS
36   36    1
SMALL
USER_CHARGES


@<TRIPOS>ATOM
      1 C1         -4.8331   -0.7462    4.6727 C.3       1 UNK         0.0986 
      2 C2         -5.7748   -1.9240    5.0473 C.3       1 UNK         0.1007 
      3 N3         -5.9750   -2.8315    3.9006 N.3       1 UNK        -0.7113 
      4 C4         -4.6503   -3.3268    3.4710 C.3       1 UNK         0.1007 
      5 C5         -3.7095   -2.1472    3.0994 C.3       1 UNK         0.0986 
      6 N6         -3.5081   -1.2451    4.2498 N.3       1 UNK        -0.7051 
      7 C7         -2.5921   -0.1575    3.8777 C.3       1 UNK         0.1131 
      8 C8         -2.1565    0.7011    5.0878 C.3       1 UNK        -0.1197 
      9 C9         -1.4961   -0.0673    6.2630 C.3       1 UNK        -0.2881 
     10 S10         0.1686   -0.8027    5.8020 S.3       1 UNK         1.0110 
     11 O11         1.1032    0.2720    5.4493 O.2       1 UNK        -0.4915 
     12 O12        -0.0079   -1.9738    4.9376 O.2       1 UNK        -0.4915 
     13 O13         0.5875   -1.3559    7.2909 O.3       1 UNK        -0.5020 
     14 C14        -6.9005   -3.9176    4.2798 C.3       1 UNK         0.0871 
     15 C15        -7.3100   -4.8885    3.1425 C.3       1 UNK         0.1330 
     16 O16        -8.1043   -4.2528    2.1486 O.3       1 UNK        -0.6627 
     17 H17        -4.7340   -0.1025    5.5477 H         1 UNK         0.0691 
     18 H18        -5.2916   -0.1351    3.8914 H         1 UNK         0.0691 
     19 H19        -6.7352   -1.5148    5.3678 H         1 UNK         0.0706 
     20 H20        -5.3681   -2.4609    5.9080 H         1 UNK         0.0706 
     21 H21        -4.7508   -3.9641    2.5919 H         1 UNK         0.0706 
     22 H22        -4.1878   -3.9413    4.2472 H         1 UNK         0.0706 
     23 H23        -2.7492   -2.5557    2.7776 H         1 UNK         0.0691 
     24 H24        -4.1154   -1.6060    2.2410 H         1 UNK         0.0691 
     25 H25        -1.6967   -0.5844    3.4210 H         1 UNK         0.0626 
     26 H26        -3.0466    0.4797    3.1146 H         1 UNK         0.0626 
     27 H27        -1.4533    1.4532    4.7248 H         1 UNK         0.0883 
     28 H28        -3.0000    1.2955    5.4411 H         1 UNK         0.0883 
     29 H29        -2.1101   -0.8952    6.6100 H         1 UNK         0.1467 
     30 H30        -1.3039    0.5847    7.1119 H         1 UNK         0.1467 
     31 H31         0.1162   -2.2024    7.4167 H         1 UNK         0.3980 
     32 H32        -7.7946   -3.5776    4.8074 H         1 UNK         0.0752 
     33 H33        -6.3933   -4.5247    5.0338 H         1 UNK         0.0752 
     34 H34        -7.8929   -5.7055    3.5716 H         1 UNK         0.0513 
     35 H35        -6.4423   -5.3691    2.6892 H         1 UNK         0.0513 
     36 H36        -8.3195   -4.9100    1.4685 H         1 UNK         0.4242 
@<TRIPOS>BOND
     1    1    2 1    
     2    1    6 1    
     3    1   17 1    
     4    1   18 1    
     5    2    3 1    
     6    2   19 1    
     7    2   20 1    
     8    3    4 1    
     9    3   14 1    
    10    4    5 1    
    11    4   21 1    
    12    4   22 1    
    13    5    6 1    
    14    5   23 1    
    15    5   24 1    
    16    6    7 1    
    17    7    8 1    
    18    7   25 1    
    19    7   26 1    
    20    8    9 1    
    21    8   27 1    
    22    8   28 1    
    23    9   10 1    
    24    9   29 1    
    25    9   30 1    
    26   10   11 2    
    27   10   12 2    
    28   10   13 1    
    29   13   31 1    
    30   14   15 1    
    31   14   32 1    
    32   14   33 1    
    33   15   16 1    
    34   15   34 1    
    35   15   35 1    
    36   16   36 1    
@<TRIPOS>SUBSTRUCTURE
     1 UNK         1 GROUP             0       ****    0 ROOT    
@<TRIPOS>MOLECULE
EPPS
36   36    1
SMALL
USER_CHARGES


@<TRIPOS>ATOM
      1 C1         -4.8417   -1.3653    5.5025 C.3       1 UNK         0.0986 
      2 C2         -5.4577   -2.7872    5.3949 C.3       1 UNK         0.1007 
      3 N3         -5.9008   -3.0695    4.0156 N.3       1 UNK        -0.7113 
      4 C4         -4.7332   -2.9274    3.1206 C.3       1 UNK         0.1007 
      5 C5         -4.1103   -1.5079    3.2342 C.3       1 UNK         0.0986 
      6 N6         -3.6691   -1.2305    4.6169 N.3       1 UNK        -0.7051 
      7 C7         -3.0856    0.1108    4.7609 C.3       1 UNK         0.1131 
      8 C8         -1.7273    0.2558    4.0363 C.3       1 UNK        -0.1197 
      9 C9         -0.6294   -0.7634    4.4413 C.3       1 UNK        -0.2881 
     10 S10        -0.0497   -0.5367    6.2125 S.3       1 UNK         1.0110 
     11 O11        -1.0631   -1.0265    7.1521 O.2       1 UNK        -0.4915 
     12 O12         0.5573    0.7900    6.3682 O.2       1 UNK        -0.4915 
     13 O13         1.1673   -1.6398    6.1911 O.3       1 UNK        -0.5020 
     14 C14        -6.5139   -4.4112    3.9537 C.3       1 UNK         0.0871 
     15 C15        -7.1430   -4.8080    2.5933 C.3       1 UNK         0.1330 
     16 O16        -8.2868   -4.0240    2.2773 O.3       1 UNK        -0.6627 
     17 H17        -4.5451   -1.1912    6.5389 H         1 UNK         0.0691 
     18 H18        -5.6003   -0.6136    5.2699 H         1 UNK         0.0691 
     19 H19        -6.3071   -2.8528    6.0781 H         1 UNK         0.0706 
     20 H20        -4.7320   -3.5301    5.7358 H         1 UNK         0.0706 
     21 H21        -5.0316   -3.0792    2.0826 H         1 UNK         0.0706 
     22 H22        -3.9754   -3.6841    3.3379 H         1 UNK         0.0706 
     23 H23        -3.2628   -1.4564    2.5494 H         1 UNK         0.0691 
     24 H24        -4.8275   -0.7576    2.8925 H         1 UNK         0.0691 
     25 H25        -3.7827    0.8709    4.3988 H         1 UNK         0.0626 
     26 H26        -2.9319    0.3221    5.8213 H         1 UNK         0.0626 
     27 H27        -1.8822    0.2471    2.9567 H         1 UNK         0.0883 
     28 H28        -1.3546    1.2637    4.2287 H         1 UNK         0.0883 
     29 H29         0.2612   -0.6606    3.8257 H         1 UNK         0.1467 
     30 H30        -0.9735   -1.7920    4.3621 H         1 UNK         0.1467 
     31 H31         0.7521   -2.5155    6.3151 H         1 UNK         0.3980 
     32 H32        -7.2264   -4.6134    4.7566 H         1 UNK         0.0752 
     33 H33        -5.7207   -5.1374    4.1484 H         1 UNK         0.0752 
     34 H34        -6.4141   -4.7656    1.7831 H         1 UNK         0.0513 
     35 H35        -7.4510   -5.8541    2.6411 H         1 UNK         0.0513 
     36 H36        -8.6276   -4.3198    1.4189 H         1 UNK         0.4242 
@<TRIPOS>BOND
     1    1    2 1    
     2    1    6 1    
     3    1   17 1    
     4    1   18 1    
     5    2    3 1    
     6    2   19 1    
     7    2   20 1    
     8    3    4 1    
     9    3   14 1    
    10    4    5 1    
    11    4   21 1    
    12    4   22 1    
    13    5    6 1    
    14    5   23 1    
    15    5   24 1    
    16    6    7 1    
    17    7    8 1    
    18    7   25 1    
    19    7   26 1    
    20    8    9 1    
    21    8   27 1    
    22    8   28 1    
    23    9   10 1    
    24    9   29 1    
    25    9   30 1    
    26   10   11 2    
    27   10   12 2    
    28   10   13 1    
    29   13   31 1    
    30   14   15 1    
    31   14   32 1    
    32   14   33 1    
    33   15   16 1    
    34   15   34 1    
    35   15   35 1    
    36   16   36 1    
@<TRIPOS>SUBSTRUCTURE
     1 UNK         1 GROUP             0       ****    0 ROOT    
@<TRIPOS>MOLECULE
EPPS
36   36    1
SMALL
USER_CHARGES


@<TRIPOS>ATOM
      1 C1         -4.2232   -1.9194    3.2816 C.3       1 UNK         0.0986 
      2 C2         -4.9896   -3.2688    3.3719 C.3       1 UNK         0.1007 
      3 N3         -6.2379   -3.1196    4.1499 N.3       1 UNK        -0.7113 
      4 C4         -5.8556   -2.6436    5.4959 C.3       1 UNK         0.1007 
      5 C5         -5.0957   -1.2910    5.4133 C.3       1 UNK         0.0986 
      6 N6         -3.8552   -1.4323    4.6270 N.3       1 UNK        -0.7051 
      7 C7         -3.1411   -0.1479    4.5844 C.3       1 UNK         0.1131 
      8 C8         -1.7342   -0.2586    3.9507 C.3       1 UNK        -0.1197 
      9 C9         -0.7771   -1.3135    4.5726 C.3       1 UNK        -0.2881 
     10 S10        -0.1300   -0.8390    6.2734 S.3       1 UNK         1.0110 
     11 O11        -1.2314   -0.4726    7.1702 O.2       1 UNK        -0.4915 
     12 O12         0.8954   -1.8016    6.6893 O.2       1 UNK        -0.4915 
     13 O13         0.6482    0.5443    5.8477 O.3       1 UNK        -0.5020 
     14 C14        -6.9672   -4.3990    4.2452 C.3       1 UNK         0.0871 
     15 C15        -7.9509   -4.6740    3.0822 C.3       1 UNK         0.1330 
     16 O16        -7.3050   -4.9260    1.8444 O.3       1 UNK        -0.6627 
     17 H17        -4.8265   -1.1816    2.7472 H         1 UNK         0.0691 
     18 H18        -3.3277   -2.0790    2.6796 H         1 UNK         0.0691 
     19 H19        -4.3419   -4.0307    3.8131 H         1 UNK         0.0706 
     20 H20        -5.2010   -3.6063    2.3579 H         1 UNK         0.0706 
     21 H21        -5.2425   -3.3828    6.0178 H         1 UNK         0.0706 
     22 H22        -6.7486   -2.5005    6.1079 H         1 UNK         0.0706 
     23 H23        -5.7479   -0.5246    4.9871 H         1 UNK         0.0691 
     24 H24        -4.8568   -0.9617    6.4267 H         1 UNK         0.0691 
     25 H25        -3.7314    0.5931    4.0393 H         1 UNK         0.0626 
     26 H26        -3.0372    0.2407    5.5988 H         1 UNK         0.0626 
     27 H27        -1.8335   -0.4187    2.8763 H         1 UNK         0.0883 
     28 H28        -1.2646    0.7246    4.0129 H         1 UNK         0.0883 
     29 H29         0.1036   -1.4697    3.9545 H         1 UNK         0.1467 
     30 H30        -1.2639   -2.2772    4.7044 H         1 UNK         0.1467 
     31 H31         1.4975    0.2757    5.4470 H         1 UNK         0.3980 
     32 H32        -7.6232   -4.3235    5.1159 H         1 UNK         0.0752 
     33 H33        -6.3602   -5.2737    4.4904 H         1 UNK         0.0752 
     34 H34        -8.5582   -5.5456    3.3326 H         1 UNK         0.0513 
     35 H35        -8.6568   -3.8474    2.9790 H         1 UNK         0.0513 
     36 H36        -6.9093   -4.0893    1.5585 H         1 UNK         0.4242 
@<TRIPOS>BOND
     1    1    2 1    
     2    1    6 1    
     3    1   17 1    
     4    1   18 1    
     5    2    3 1    
     6    2   19 1    
     7    2   20 1    
     8    3    4 1    
     9    3   14 1    
    10    4    5 1    
    11    4   21 1    
    12    4   22 1    
    13    5    6 1    
    14    5   23 1    
    15    5   24 1    
    16    6    7 1    
    17    7    8 1    
    18    7   25 1    
    19    7   26 1    
    20    8    9 1    
    21    8   27 1    
    22    8   28 1    
    23    9   10 1    
    24    9   29 1    
    25    9   30 1    
    26   10   11 2    
    27   10   12 2    
    28   10   13 1    
    29   13   31 1    
    30   14   15 1    
    31   14   32 1    
    32   14   33 1    
    33   15   16 1    
    34   15   34 1    
    35   15   35 1    
    36   16   36 1    
@<TRIPOS>SUBSTRUCTURE
     1 UNK         1 GROUP             0       ****    0 ROOT    
@<TRIPOS>MOLECULE
EPPS
36   36    1
SMALL
USER_CHARGES


@<TRIPOS>ATOM
      1 C1         -5.2507   -1.1286    3.9663 C.3       1 UNK         0.0986 
      2 C2         -6.1469   -2.3572    4.2857 C.3       1 UNK         0.1007 
      3 N3         -5.7403   -3.5304    3.4839 N.3       1 UNK        -0.7113 
      4 C4         -4.3207   -3.8129    3.7728 C.3       1 UNK         0.1007 
      5 C5         -3.4276   -2.5819    3.4542 C.3       1 UNK         0.0986 
      6 N6         -3.8330   -1.4131    4.2623 N.3       1 UNK        -0.7051 
      7 C7         -3.0158   -0.2245    3.9777 C.3       1 UNK         0.1131 
      8 C8         -1.5532   -0.3667    4.4533 C.3       1 UNK        -0.1197 
      9 C9         -1.3967   -0.6565    5.9677 C.3       1 UNK        -0.2881 
     10 S10         0.4039   -0.7805    6.4771 S.3       1 UNK         1.0110 
     11 O11         1.1272   -1.6637    5.5549 O.2       1 UNK        -0.4915 
     12 O12         0.4939   -0.9571    7.9303 O.2       1 UNK        -0.4915 
     13 O13         0.8483    0.7659    6.1431 O.3       1 UNK        -0.5020 
     14 C14        -6.5545   -4.7298    3.7641 C.3       1 UNK         0.0871 
     15 C15        -8.0573   -4.6317    3.3956 C.3       1 UNK         0.1330 
     16 O16        -8.2649   -4.5411    1.9915 O.3       1 UNK        -0.6627 
     17 H17        -5.5921   -0.2828    4.5667 H         1 UNK         0.0691 
     18 H18        -5.3836   -0.8355    2.9217 H         1 UNK         0.0691 
     19 H19        -7.1792   -2.0852    4.0629 H         1 UNK         0.0706 
     20 H20        -6.1091   -2.5777    5.3553 H         1 UNK         0.0706 
     21 H21        -3.9807   -4.6567    3.1686 H         1 UNK         0.0706 
     22 H22        -4.1824   -4.1080    4.8160 H         1 UNK         0.0706 
     23 H23        -2.3933   -2.8518    3.6705 H         1 UNK         0.0691 
     24 H24        -3.4697   -2.3559    2.3859 H         1 UNK         0.0691 
     25 H25        -3.0410    0.0148    2.9114 H         1 UNK         0.0626 
     26 H26        -3.4509    0.6337    4.4956 H         1 UNK         0.0626 
     27 H27        -1.0264   -1.1050    3.8470 H         1 UNK         0.0883 
     28 H28        -1.0449    0.5711    4.2214 H         1 UNK         0.0883 
     29 H29        -1.8475   -1.6064    6.2461 H         1 UNK         0.1467 
     30 H30        -1.8373    0.1218    6.5859 H         1 UNK         0.1467 
     31 H31         0.5454    1.3120    6.8941 H         1 UNK         0.3980 
     32 H32        -6.5137   -4.9023    4.8425 H         1 UNK         0.0752 
     33 H33        -6.1399   -5.6549    3.3574 H         1 UNK         0.0752 
     34 H34        -8.5662   -5.5272    3.7570 H         1 UNK         0.0513 
     35 H35        -8.5463   -3.8031    3.9091 H         1 UNK         0.0513 
     36 H36        -9.2194   -4.4785    1.8310 H         1 UNK         0.4242 
@<TRIPOS>BOND
     1    1    2 1    
     2    1    6 1    
     3    1   17 1    
     4    1   18 1    
     5    2    3 1    
     6    2   19 1    
     7    2   20 1    
     8    3    4 1    
     9    3   14 1    
    10    4    5 1    
    11    4   21 1    
    12    4   22 1    
    13    5    6 1    
    14    5   23 1    
    15    5   24 1    
    16    6    7 1    
    17    7    8 1    
    18    7   25 1    
    19    7   26 1    
    20    8    9 1    
    21    8   27 1    
    22    8   28 1    
    23    9   10 1    
    24    9   29 1    
    25    9   30 1    
    26   10   11 2    
    27   10   12 2    
    28   10   13 1    
    29   13   31 1    
    30   14   15 1    
    31   14   32 1    
    32   14   33 1    
    33   15   16 1    
    34   15   34 1    
    35   15   35 1    
    36   16   36 1    
@<TRIPOS>SUBSTRUCTURE
     1 UNK         1 GROUP             0       ****    0 ROOT    
@<TRIPOS>MOLECULE
EPPS
36   36    1
SMALL
USER_CHARGES


@<TRIPOS>ATOM
      1 C1         -4.6062   -1.5652    4.9448 C.3       1 UNK         0.0986 
      2 C2         -5.3573   -2.9176    5.0909 C.3       1 UNK         0.1007 
      3 N3         -6.0018   -3.3091    3.8221 N.3       1 UNK        -0.7113 
      4 C4         -4.9546   -3.3925    2.7824 C.3       1 UNK         0.1007 
      5 C5         -4.2041   -2.0392    2.6402 C.3       1 UNK         0.0986 
      6 N6         -3.5559   -1.6547    3.9093 N.3       1 UNK        -0.7051 
      7 C7         -2.8314   -0.3872    3.7352 C.3       1 UNK         0.1131 
      8 C8         -1.9556   -0.0178    4.9527 C.3       1 UNK        -0.1197 
      9 C9         -0.8945   -1.0838    5.3263 C.3       1 UNK        -0.2881 
     10 S10         0.1519   -0.5515    6.7888 S.3       1 UNK         1.0110 
     11 O11         1.1984   -1.5492    7.0351 O.2       1 UNK        -0.4915 
     12 O12        -0.7099   -0.0662    7.8730 O.2       1 UNK        -0.4915 
     13 O13         0.8724    0.7539    6.0981 O.3       1 UNK        -0.5020 
     14 C14        -6.7338   -4.5782    4.0054 C.3       1 UNK         0.0871 
     15 C15        -7.5680   -5.0623    2.7917 C.3       1 UNK         0.1330 
     16 O16        -8.6691   -4.2054    2.5160 O.3       1 UNK        -0.6627 
     17 H17        -4.1652   -1.3192    5.9116 H         1 UNK         0.0691 
     18 H18        -5.3160   -0.7660    4.7180 H         1 UNK         0.0691 
     19 H19        -6.1122   -2.8150    5.8733 H         1 UNK         0.0706 
     20 H20        -4.6634   -3.6890    5.4344 H         1 UNK         0.0706 
     21 H21        -5.3987   -3.6318    1.8156 H         1 UNK         0.0706 
     22 H22        -4.2427   -4.1918    3.0022 H         1 UNK         0.0706 
     23 H23        -3.4517   -2.1388    1.8551 H         1 UNK         0.0691 
     24 H24        -4.8980   -1.2653    2.3023 H         1 UNK         0.0691 
     25 H25        -2.1729   -0.4749    2.8676 H         1 UNK         0.0626 
     26 H26        -3.5259    0.4270    3.5129 H         1 UNK         0.0626 
     27 H27        -1.4446    0.9164    4.7122 H         1 UNK         0.0883 
     28 H28        -2.5824    0.2410    5.8072 H         1 UNK         0.0883 
     29 H29        -0.2032   -1.2833    4.5113 H         1 UNK         0.1467 
     30 H30        -1.3534   -2.0252    5.6198 H         1 UNK         0.1467 
     31 H31         1.6006    0.4109    5.5449 H         1 UNK         0.3980 
     32 H32        -7.3500   -4.6112    4.9067 H         1 UNK         0.0752 
     33 H33        -5.9891   -5.3552    4.1954 H         1 UNK         0.0752 
     34 H34        -6.9506   -5.1904    1.9018 H         1 UNK         0.0513 
     35 H35        -7.9589   -6.0580    3.0094 H         1 UNK         0.0513 
     36 H36        -9.1435   -4.5610    1.7485 H         1 UNK         0.4242 
@<TRIPOS>BOND
     1    1    2 1    
     2    1    6 1    
     3    1   17 1    
     4    1   18 1    
     5    2    3 1    
     6    2   19 1    
     7    2   20 1    
     8    3    4 1    
     9    3   14 1    
    10    4    5 1    
    11    4   21 1    
    12    4   22 1    
    13    5    6 1    
    14    5   23 1    
    15    5   24 1    
    16    6    7 1    
    17    7    8 1    
    18    7   25 1    
    19    7   26 1    
    20    8    9 1    
    21    8   27 1    
    22    8   28 1    
    23    9   10 1    
    24    9   29 1    
    25    9   30 1    
    26   10   11 2    
    27   10   12 2    
    28   10   13 1    
    29   13   31 1    
    30   14   15 1    
    31   14   32 1    
    32   14   33 1    
    33   15   16 1    
    34   15   34 1    
    35   15   35 1    
    36   16   36 1    
@<TRIPOS>SUBSTRUCTURE
     1 UNK         1 GROUP             0       ****    0 ROOT    
@<TRIPOS>MOLECULE
EPPS
36   36    1
SMALL
USER_CHARGES


@<TRIPOS>ATOM
      1 C1         -5.2283   -0.5316    3.7452 C.3       1 UNK         0.0986 
      2 C2         -6.3975   -1.4423    4.2104 C.3       1 UNK         0.1007 
      3 N3         -6.2714   -2.7979    3.6403 N.3       1 UNK        -0.7113 
      4 C4         -4.9671   -3.3523    4.0598 C.3       1 UNK         0.1007 
      5 C5         -3.7968   -2.4365    3.6038 C.3       1 UNK         0.0986 
      6 N6         -3.9282   -1.0808    4.1770 N.3       1 UNK        -0.7051 
      7 C7         -2.8427   -0.1850    3.7517 C.3       1 UNK         0.1131 
      8 C8         -1.4685   -0.5773    4.3376 C.3       1 UNK        -0.1197 
      9 C9         -1.4206   -0.6221    5.8860 C.3       1 UNK        -0.2881 
     10 S10         0.2846   -1.0731    6.5234 S.3       1 UNK         1.0110 
     11 O11         0.7917   -2.2515    5.8110 O.2       1 UNK        -0.4915 
     12 O12         0.2973   -1.0036    7.9883 O.2       1 UNK        -0.4915 
     13 O13         1.0983    0.2403    5.9636 O.3       1 UNK        -0.5020 
     14 C14        -7.4150   -3.6274    4.0695 C.3       1 UNK         0.0871 
     15 C15        -7.4918   -5.0486    3.4548 C.3       1 UNK         0.1330 
     16 O16        -7.7474   -5.0196    2.0560 O.3       1 UNK        -0.6627 
     17 H17        -5.3707    0.4638    4.1711 H         1 UNK         0.0691 
     18 H18        -5.2635   -0.4084    2.6598 H         1 UNK         0.0691 
     19 H19        -7.3398   -0.9918    3.8913 H         1 UNK         0.0706 
     20 H20        -6.4277   -1.4750    5.3024 H         1 UNK         0.0706 
     21 H21        -4.8140   -4.3363    3.6151 H         1 UNK         0.0706 
     22 H22        -4.9285   -3.4934    5.1427 H         1 UNK         0.0706 
     23 H23        -2.8634   -2.8964    3.9308 H         1 UNK         0.0691 
     24 H24        -3.7554   -2.3996    2.5124 H         1 UNK         0.0691 
     25 H25        -2.7852   -0.1390    2.6611 H         1 UNK         0.0626 
     26 H26        -3.0704    0.8287    4.0904 H         1 UNK         0.0626 
     27 H27        -1.1213   -1.5135    3.8982 H         1 UNK         0.0883 
     28 H28        -0.7443    0.1597    3.9855 H         1 UNK         0.0883 
     29 H29        -2.0943   -1.3746    6.2897 H         1 UNK         0.1467 
     30 H30        -1.6727    0.3350    6.3359 H         1 UNK         0.1467 
     31 H31         0.9201    0.9675    6.5908 H         1 UNK         0.3980 
     32 H32        -8.3850   -3.1350    3.9698 H         1 UNK         0.0752 
     33 H33        -7.3258   -3.7650    5.1501 H         1 UNK         0.0752 
     34 H34        -6.5943   -5.6304    3.6679 H         1 UNK         0.0513 
     35 H35        -8.3039   -5.5959    3.9370 H         1 UNK         0.0513 
     36 H36        -7.7791   -5.9346    1.7360 H         1 UNK         0.4242 
@<TRIPOS>BOND
     1    1    2 1    
     2    1    6 1    
     3    1   17 1    
     4    1   18 1    
     5    2    3 1    
     6    2   19 1    
     7    2   20 1    
     8    3    4 1    
     9    3   14 1    
    10    4    5 1    
    11    4   21 1    
    12    4   22 1    
    13    5    6 1    
    14    5   23 1    
    15    5   24 1    
    16    6    7 1    
    17    7    8 1    
    18    7   25 1    
    19    7   26 1    
    20    8    9 1    
    21    8   27 1    
    22    8   28 1    
    23    9   10 1    
    24    9   29 1    
    25    9   30 1    
    26   10   11 2    
    27   10   12 2    
    28   10   13 1    
    29   13   31 1    
    30   14   15 1    
    31   14   32 1    
    32   14   33 1    
    33   15   16 1    
    34   15   34 1    
    35   15   35 1    
    36   16   36 1    
@<TRIPOS>SUBSTRUCTURE
     1 UNK         1 GROUP             0       ****    0 ROOT    
@<TRIPOS>MOLECULE
EPPS
36   36    1
SMALL
USER_CHARGES


@<TRIPOS>ATOM
      1 C1         -4.5633   -1.4511    4.9046 C.3       1 UNK         0.0986 
      2 C2         -4.8772   -2.9240    5.2995 C.3       1 UNK         0.1007 
      3 N3         -4.7568   -3.8580    4.1580 N.3       1 UNK        -0.7113 
      4 C4         -3.4101   -3.6984    3.5708 C.3       1 UNK         0.1007 
      5 C5         -3.1005   -2.2245    3.1768 C.3       1 UNK         0.0986 
      6 N6         -3.1943   -1.3374    4.3541 N.3       1 UNK        -0.7051 
      7 C7         -2.8805    0.0481    3.9721 C.3       1 UNK         0.1131 
      8 C8         -2.4785    0.9074    5.1936 C.3       1 UNK        -0.1197 
      9 C9         -0.9884    0.8240    5.6386 C.3       1 UNK        -0.2881 
     10 S10        -0.2925   -0.9134    5.8464 S.3       1 UNK         1.0110 
     11 O11         0.6939   -0.9232    6.9324 O.2       1 UNK        -0.4915 
     12 O12         0.0271   -1.4851    4.5345 O.2       1 UNK        -0.4915 
     13 O13        -1.6472   -1.6542    6.3956 O.3       1 UNK        -0.5020 
     14 C14        -5.8277   -3.7686    3.1444 C.3       1 UNK         0.0871 
     15 C15        -7.1968   -4.2292    3.6969 C.3       1 UNK         0.1330 
     16 O16        -8.1761   -4.2063    2.6691 O.3       1 UNK        -0.6627 
     17 H17        -4.6730   -0.8311    5.7954 H         1 UNK         0.0691 
     18 H18        -5.3065   -1.0811    4.1949 H         1 UNK         0.0691 
     19 H19        -5.8669   -2.9775    5.7531 H         1 UNK         0.0706 
     20 H20        -4.1923   -3.2380    6.0902 H         1 UNK         0.0706 
     21 H21        -3.2994   -4.3401    2.6943 H         1 UNK         0.0706 
     22 H22        -2.6593   -4.0510    4.2812 H         1 UNK         0.0706 
     23 H23        -2.0903   -2.1841    2.7636 H         1 UNK         0.0691 
     24 H24        -3.7665   -1.8947    2.3761 H         1 UNK         0.0691 
     25 H25        -2.0268    0.0399    3.2897 H         1 UNK         0.0626 
     26 H26        -3.6967    0.5144    3.4141 H         1 UNK         0.0626 
     27 H27        -2.7164    1.9503    4.9774 H         1 UNK         0.0883 
     28 H28        -3.0865    0.6440    6.0597 H         1 UNK         0.0883 
     29 H29        -0.8528    1.2995    6.6077 H         1 UNK         0.1467 
     30 H30        -0.3209    1.3269    4.9425 H         1 UNK         0.1467 
     31 H31        -2.2876   -1.6003    5.6316 H         1 UNK         0.3980 
     32 H32        -5.5455   -4.4401    2.3302 H         1 UNK         0.0752 
     33 H33        -5.8876   -2.7380    2.7910 H         1 UNK         0.0752 
     34 H34        -7.1212   -5.2442    4.0917 H         1 UNK         0.0513 
     35 H35        -7.5375   -3.5939    4.5151 H         1 UNK         0.0513 
     36 H36        -8.4057   -3.2818    2.4862 H         1 UNK         0.4242 
@<TRIPOS>BOND
     1    1    2 1    
     2    1    6 1    
     3    1   17 1    
     4    1   18 1    
     5    2    3 1    
     6    2   19 1    
     7    2   20 1    
     8    3    4 1    
     9    3   14 1    
    10    4    5 1    
    11    4   21 1    
    12    4   22 1    
    13    5    6 1    
    14    5   23 1    
    15    5   24 1    
    16    6    7 1    
    17    7    8 1    
    18    7   25 1    
    19    7   26 1    
    20    8    9 1    
    21    8   27 1    
    22    8   28 1    
    23    9   10 1    
    24    9   29 1    
    25    9   30 1    
    26   10   11 2    
    27   10   12 2    
    28   10   13 1    
    29   13   31 1    
    30   14   15 1    
    31   14   32 1    
    32   14   33 1    
    33   15   16 1    
    34   15   34 1    
    35   15   35 1    
    36   16   36 1    
@<TRIPOS>SUBSTRUCTURE
     1 UNK         1 GROUP             0       ****    0 ROOT    
@<TRIPOS>MOLECULE
EPPS
36   36    1
SMALL
USER_CHARGES


@<TRIPOS>ATOM
      1 C1         -5.3530   -0.3171    4.1397 C.3       1 UNK         0.0986 
      2 C2         -6.3993   -1.3981    4.5263 C.3       1 UNK         0.1007 
      3 N3         -6.2006   -2.6314    3.7403 N.3       1 UNK        -0.7113 
      4 C4         -4.8246   -3.1133    3.9830 C.3       1 UNK         0.1007 
      5 C5         -3.7771   -2.0284    3.6063 C.3       1 UNK         0.0986 
      6 N6         -3.9806   -0.7959    4.3958 N.3       1 UNK        -0.7051 
      7 C7         -3.0133    0.2561    4.0506 C.3       1 UNK         0.1131 
      8 C8         -1.5700   -0.0829    4.4834 C.3       1 UNK        -0.1197 
      9 C9         -1.4013   -0.3483    6.0009 C.3       1 UNK        -0.2881 
     10 S10         0.3788   -0.7266    6.4538 S.3       1 UNK         1.0110 
     11 O11         0.4635   -1.0663    7.8780 O.2       1 UNK        -0.4915 
     12 O12         1.2724    0.2703    5.8527 O.2       1 UNK        -0.4915 
     13 O13         0.5435   -2.1245    5.6059 O.3       1 UNK        -0.5020 
     14 C14        -7.2311   -3.6250    4.1019 C.3       1 UNK         0.0871 
     15 C15        -7.2321   -4.9347    3.2723 C.3       1 UNK         0.1330 
     16 O16        -7.5967   -4.7148    1.9152 O.3       1 UNK        -0.6627 
     17 H17        -5.5480    0.5828    4.7268 H         1 UNK         0.0691 
     18 H18        -5.4828   -0.0335    3.0922 H         1 UNK         0.0691 
     19 H19        -7.3990   -0.9985    4.3432 H         1 UNK         0.0706 
     20 H20        -6.3418   -1.6005    5.5988 H         1 UNK         0.0706 
     21 H21        -4.6215   -3.9980    3.3785 H         1 UNK         0.0706 
     22 H22        -4.6903   -3.4138    5.0250 H         1 UNK         0.0706 
     23 H23        -2.7846   -2.4392    3.7957 H         1 UNK         0.0691 
     24 H24        -3.8242   -1.8209    2.5344 H         1 UNK         0.0691 
     25 H25        -3.0423    0.4708    2.9793 H         1 UNK         0.0626 
     26 H26        -3.3027    1.1802    4.5568 H         1 UNK         0.0626 
     27 H27        -1.1756   -0.9047    3.8842 H         1 UNK         0.0883 
     28 H28        -0.9418    0.7659    4.2065 H         1 UNK         0.0883 
     29 H29        -1.9909   -1.1979    6.3374 H         1 UNK         0.1467 
     30 H30        -1.6794    0.5159    6.5995 H         1 UNK         0.1467 
     31 H31         0.1322   -2.8275    6.1448 H         1 UNK         0.3980 
     32 H32        -8.2450   -3.2205    4.1443 H         1 UNK         0.0752 
     33 H33        -7.0465   -3.9184    5.1384 H         1 UNK         0.0752 
     34 H34        -6.2737   -5.4519    3.3321 H         1 UNK         0.0513 
     35 H35        -7.9539   -5.6267    3.7098 H         1 UNK         0.0513 
     36 H36        -7.5732   -5.5678    1.4543 H         1 UNK         0.4242 
@<TRIPOS>BOND
     1    1    2 1    
     2    1    6 1    
     3    1   17 1    
     4    1   18 1    
     5    2    3 1    
     6    2   19 1    
     7    2   20 1    
     8    3    4 1    
     9    3   14 1    
    10    4    5 1    
    11    4   21 1    
    12    4   22 1    
    13    5    6 1    
    14    5   23 1    
    15    5   24 1    
    16    6    7 1    
    17    7    8 1    
    18    7   25 1    
    19    7   26 1    
    20    8    9 1    
    21    8   27 1    
    22    8   28 1    
    23    9   10 1    
    24    9   29 1    
    25    9   30 1    
    26   10   11 2    
    27   10   12 2    
    28   10   13 1    
    29   13   31 1    
    30   14   15 1    
    31   14   32 1    
    32   14   33 1    
    33   15   16 1    
    34   15   34 1    
    35   15   35 1    
    36   16   36 1    
@<TRIPOS>SUBSTRUCTURE
     1 UNK         1 GROUP             0       ****    0 ROOT    
@<TRIPOS>MOLECULE
EPPS
36   36    1
SMALL
USER_CHARGES


@<TRIPOS>ATOM
      1 C1         -4.2411   -2.3082    5.3832 C.3       1 UNK         0.0986 
      2 C2         -5.6167   -2.0909    4.6805 C.3       1 UNK         0.1007 
      3 N3         -5.6218   -2.5689    3.2819 N.3       1 UNK        -0.7113 
      4 C4         -4.5079   -1.9280    2.5551 C.3       1 UNK         0.1007 
      5 C5         -3.1308   -2.1446    3.2554 C.3       1 UNK         0.0986 
      6 N6         -3.1180   -1.6733    4.6590 N.3       1 UNK        -0.7051 
      7 C7         -3.1182   -0.2090    4.8135 C.3       1 UNK         0.1131 
      8 C8         -1.8569    0.4655    4.2228 C.3       1 UNK        -0.1197 
      9 C9         -0.4721   -0.1668    4.5462 C.3       1 UNK        -0.2881 
     10 S10        -0.2627   -0.6671    6.3425 S.3       1 UNK         1.0110 
     11 O11        -0.9878    0.2595    7.2186 O.2       1 UNK        -0.4915 
     12 O12         1.1381   -1.0140    6.6066 O.2       1 UNK        -0.4915 
     13 O13        -1.1109   -2.0720    6.2797 O.3       1 UNK        -0.5020 
     14 C14        -5.6311   -4.0368    3.1107 C.3       1 UNK         0.0871 
     15 C15        -6.8520   -4.7806    3.7105 C.3       1 UNK         0.1330 
     16 O16        -8.0770   -4.3975    3.0981 O.3       1 UNK        -0.6627 
     17 H17        -4.0453   -3.3760    5.4982 H         1 UNK         0.0691 
     18 H18        -4.2969   -1.9210    6.4030 H         1 UNK         0.0691 
     19 H19        -5.8768   -1.0310    4.6978 H         1 UNK         0.0706 
     20 H20        -6.4032   -2.5743    5.2604 H         1 UNK         0.0706 
     21 H21        -4.7079   -0.8604    2.4467 H         1 UNK         0.0706 
     22 H22        -4.4571   -2.3118    1.5340 H         1 UNK         0.0706 
     23 H23        -2.8627   -3.2024    3.2279 H         1 UNK         0.0691 
     24 H24        -2.3532   -1.6484    2.6735 H         1 UNK         0.0691 
     25 H25        -4.0026    0.2180    4.3363 H         1 UNK         0.0626 
     26 H26        -3.1990    0.0520    5.8710 H         1 UNK         0.0626 
     27 H27        -1.9775    0.5895    3.1455 H         1 UNK         0.0883 
     28 H28        -1.8535    1.4938    4.5894 H         1 UNK         0.0883 
     29 H29         0.3342    0.5356    4.3470 H         1 UNK         0.1467 
     30 H30        -0.2753   -1.0600    3.9580 H         1 UNK         0.1467 
     31 H31        -1.9023   -1.9026    5.6977 H         1 UNK         0.3980 
     32 H32        -4.7525   -4.4393    3.6180 H         1 UNK         0.0752 
     33 H33        -5.4753   -4.3597    2.0791 H         1 UNK         0.0752 
     34 H34        -6.7157   -5.8530    3.5593 H         1 UNK         0.0513 
     35 H35        -6.9111   -4.6507    4.7916 H         1 UNK         0.0513 
     36 H36        -7.9932   -4.5409    2.1433 H         1 UNK         0.4242 
@<TRIPOS>BOND
     1    1    2 1    
     2    1    6 1    
     3    1   17 1    
     4    1   18 1    
     5    2    3 1    
     6    2   19 1    
     7    2   20 1    
     8    3    4 1    
     9    3   14 1    
    10    4    5 1    
    11    4   21 1    
    12    4   22 1    
    13    5    6 1    
    14    5   23 1    
    15    5   24 1    
    16    6    7 1    
    17    7    8 1    
    18    7   25 1    
    19    7   26 1    
    20    8    9 1    
    21    8   27 1    
    22    8   28 1    
    23    9   10 1    
    24    9   29 1    
    25    9   30 1    
    26   10   11 2    
    27   10   12 2    
    28   10   13 1    
    29   13   31 1    
    30   14   15 1    
    31   14   32 1    
    32   14   33 1    
    33   15   16 1    
    34   15   34 1    
    35   15   35 1    
    36   16   36 1    
@<TRIPOS>SUBSTRUCTURE
     1 UNK         1 GROUP             0       ****    0 ROOT    
@<TRIPOS>MOLECULE
EPPS
36   36    1
SMALL
USER_CHARGES


@<TRIPOS>ATOM
      1 C1         -4.9092   -1.5892    4.8530 C.3       1 UNK         0.0986 
      2 C2         -5.5131   -3.0105    4.6800 C.3       1 UNK         0.1007 
      3 N3         -5.6056   -3.3756    3.2507 N.3       1 UNK        -0.7113 
      4 C4         -4.2516   -3.2940    2.6686 C.3       1 UNK         0.1007 
      5 C5         -3.6505   -1.8720    2.8438 C.3       1 UNK         0.0986 
      6 N6         -3.5540   -1.5133    4.2739 N.3       1 UNK        -0.7051 
      7 C7         -2.9977   -0.1679    4.4789 C.3       1 UNK         0.1131 
      8 C8         -1.5060   -0.0631    4.0825 C.3       1 UNK        -0.1197 
      9 C9         -0.5405   -1.0812    4.7508 C.3       1 UNK        -0.2881 
     10 S10        -0.2230   -0.7394    6.5726 S.3       1 UNK         1.0110 
     11 O11         0.8288   -1.6379    7.0598 O.2       1 UNK        -0.4915 
     12 O12        -1.4847   -0.5849    7.3047 O.2       1 UNK        -0.4915 
     13 O13         0.4484    0.7521    6.4150 O.3       1 UNK        -0.5020 
     14 C14        -6.1601   -4.7270    3.0364 C.3       1 UNK         0.0871 
     15 C15        -7.6301   -4.9362    3.4824 C.3       1 UNK         0.1330 
     16 O16        -8.5465   -4.1895    2.6915 O.3       1 UNK        -0.6627 
     17 H17        -4.8695   -1.3546    5.9188 H         1 UNK         0.0691 
     18 H18        -5.5726   -0.8476    4.4007 H         1 UNK         0.0691 
     19 H19        -6.5037   -3.0108    5.1360 H         1 UNK         0.0706 
     20 H20        -4.9168   -3.7384    5.2356 H         1 UNK         0.0706 
     21 H21        -4.2923   -3.5270    1.6025 H         1 UNK         0.0706 
     22 H22        -3.5845   -4.0337    3.1183 H         1 UNK         0.0706 
     23 H23        -2.6613   -1.8652    2.3843 H         1 UNK         0.0691 
     24 H24        -4.2503   -1.1423    2.2943 H         1 UNK         0.0691 
     25 H25        -3.5787    0.5693    3.9188 H         1 UNK         0.0626 
     26 H26        -3.0994    0.1078    5.5298 H         1 UNK         0.0626 
     27 H27        -1.4167   -0.1077    2.9964 H         1 UNK         0.0883 
     28 H28        -1.1709    0.9486    4.3178 H         1 UNK         0.0883 
     29 H29         0.4371   -1.0788    4.2750 H         1 UNK         0.1467 
     30 H30        -0.9268   -2.0971    4.7079 H         1 UNK         0.1467 
     31 H31         1.3744    0.6143    6.1364 H         1 UNK         0.3980 
     32 H32        -5.5579   -5.4203    3.6291 H         1 UNK         0.0752 
     33 H33        -6.0310   -5.1059    2.0200 H         1 UNK         0.0752 
     34 H34        -7.8797   -5.9942    3.3834 H         1 UNK         0.0513 
     35 H35        -7.7673   -4.7121    4.5410 H         1 UNK         0.0513 
     36 H36        -9.4413   -4.3607    3.0241 H         1 UNK         0.4242 
@<TRIPOS>BOND
     1    1    2 1    
     2    1    6 1    
     3    1   17 1    
     4    1   18 1    
     5    2    3 1    
     6    2   19 1    
     7    2   20 1    
     8    3    4 1    
     9    3   14 1    
    10    4    5 1    
    11    4   21 1    
    12    4   22 1    
    13    5    6 1    
    14    5   23 1    
    15    5   24 1    
    16    6    7 1    
    17    7    8 1    
    18    7   25 1    
    19    7   26 1    
    20    8    9 1    
    21    8   27 1    
    22    8   28 1    
    23    9   10 1    
    24    9   29 1    
    25    9   30 1    
    26   10   11 2    
    27   10   12 2    
    28   10   13 1    
    29   13   31 1    
    30   14   15 1    
    31   14   32 1    
    32   14   33 1    
    33   15   16 1    
    34   15   34 1    
    35   15   35 1    
    36   16   36 1    
@<TRIPOS>SUBSTRUCTURE
     1 UNK         1 GROUP             0       ****    0 ROOT    
@<TRIPOS>MOLECULE
EPPS
36   36    1
SMALL
USER_CHARGES


@<TRIPOS>ATOM
      1 C1         -4.9869   -1.3202    5.3294 C.3       1 UNK         0.0986 
      2 C2         -5.7180   -2.6892    5.3949 C.3       1 UNK         0.1007 
      3 N3         -6.0274   -3.1896    4.0412 N.3       1 UNK        -0.7113 
      4 C4         -4.7581   -3.3008    3.2921 C.3       1 UNK         0.1007 
      5 C5         -4.0212   -1.9335    3.2335 C.3       1 UNK         0.0986 
      6 N6         -3.7146   -1.4367    4.5909 N.3       1 UNK        -0.7051 
      7 C7         -3.0278   -0.1369    4.5712 C.3       1 UNK         0.1131 
      8 C8         -1.5959   -0.2175    3.9910 C.3       1 UNK        -0.1197 
      9 C9         -0.6394   -1.2481    4.6531 C.3       1 UNK        -0.2881 
     10 S10        -0.0623   -0.7492    6.3720 S.3       1 UNK         1.0110 
     11 O11         0.9660   -1.6886    6.8314 O.2       1 UNK        -0.4915 
     12 O12        -1.2018   -0.3981    7.2263 O.2       1 UNK        -0.4915 
     13 O13         0.7037    0.6460    5.9634 O.3       1 UNK        -0.5020 
     14 C14        -6.7537   -4.4714    4.1373 C.3       1 UNK         0.0871 
     15 C15        -7.2613   -5.0658    2.7984 C.3       1 UNK         0.1330 
     16 O16        -8.2833   -4.2724    2.2077 O.3       1 UNK        -0.6627 
     17 H17        -4.7939   -0.9783    6.3484 H         1 UNK         0.0691 
     18 H18        -5.6403   -0.5721    4.8734 H         1 UNK         0.0691 
     19 H19        -6.6414   -2.5653    5.9645 H         1 UNK         0.0706 
     20 H20        -5.1089   -3.4065    5.9508 H         1 UNK         0.0706 
     21 H21        -4.9503   -3.6209    2.2674 H         1 UNK         0.0706 
     22 H22        -4.1043   -4.0566    3.7342 H         1 UNK         0.0706 
     23 H23        -3.1005   -2.0713    2.6650 H         1 UNK         0.0691 
     24 H24        -4.6212   -1.2100    2.6763 H         1 UNK         0.0691 
     25 H25        -3.6135    0.5899    4.0024 H         1 UNK         0.0626 
     26 H26        -2.9705    0.2559    5.5877 H         1 UNK         0.0626 
     27 H27        -1.6510   -0.3835    2.9144 H         1 UNK         0.0883 
     28 H28        -1.1514    0.7764    4.0664 H         1 UNK         0.0883 
     29 H29         0.2654   -1.3899    4.0672 H         1 UNK         0.1467 
     30 H30        -1.1105   -2.2209    4.7749 H         1 UNK         0.1467 
     31 H31         1.5713    0.3912    5.5941 H         1 UNK         0.3980 
     32 H32        -7.5674   -4.4693    4.8660 H         1 UNK         0.0752 
     33 H33        -6.0593   -5.2048    4.5551 H         1 UNK         0.0752 
     34 H34        -6.4458   -5.2268    2.0923 H         1 UNK         0.0513 
     35 H35        -7.6703   -6.0598    2.9884 H         1 UNK         0.0513 
     36 H36        -8.5519   -4.6954    1.3774 H         1 UNK         0.4242 
@<TRIPOS>BOND
     1    1    2 1    
     2    1    6 1    
     3    1   17 1    
     4    1   18 1    
     5    2    3 1    
     6    2   19 1    
     7    2   20 1    
     8    3    4 1    
     9    3   14 1    
    10    4    5 1    
    11    4   21 1    
    12    4   22 1    
    13    5    6 1    
    14    5   23 1    
    15    5   24 1    
    16    6    7 1    
    17    7    8 1    
    18    7   25 1    
    19    7   26 1    
    20    8    9 1    
    21    8   27 1    
    22    8   28 1    
    23    9   10 1    
    24    9   29 1    
    25    9   30 1    
    26   10   11 2    
    27   10   12 2    
    28   10   13 1    
    29   13   31 1    
    30   14   15 1    
    31   14   32 1    
    32   14   33 1    
    33   15   16 1    
    34   15   34 1    
    35   15   35 1    
    36   16   36 1    
@<TRIPOS>SUBSTRUCTURE
     1 UNK         1 GROUP             0       ****    0 ROOT    
@<TRIPOS>MOLECULE
EPPS
36   36    1
SMALL
USER_CHARGES


@<TRIPOS>ATOM
      1 C1         -4.4449   -1.6557    4.5768 C.3       1 UNK         0.0986 
      2 C2         -4.9726   -3.0931    4.3093 C.3       1 UNK         0.1007 
      3 N3         -5.5914   -3.1924    2.9707 N.3       1 UNK        -0.7113 
      4 C4         -4.5825   -2.7961    1.9687 C.3       1 UNK         0.1007 
      5 C5         -4.0655   -1.3566    2.2393 C.3       1 UNK         0.0986 
      6 N6         -3.4358   -1.2638    3.5709 N.3       1 UNK        -0.7051 
      7 C7         -2.9292    0.0991    3.7884 C.3       1 UNK         0.1131 
      8 C8         -2.0700    0.2291    5.0652 C.3       1 UNK        -0.1197 
      9 C9         -0.8339   -0.7048    5.1036 C.3       1 UNK        -0.2881 
     10 S10         0.1769   -0.4677    6.6653 S.3       1 UNK         1.0110 
     11 O11         0.4206    0.9613    6.8935 O.2       1 UNK        -0.4915 
     12 O12         1.2724   -1.4424    6.6961 O.2       1 UNK        -0.4915 
     13 O13        -0.9514   -0.9643    7.7518 O.3       1 UNK        -0.5020 
     14 C14        -6.0922   -4.5470    2.6677 C.3       1 UNK         0.0871 
     15 C15        -7.2310   -5.0687    3.5821 C.3       1 UNK         0.1330 
     16 O16        -8.4168   -4.2916    3.4709 O.3       1 UNK        -0.6627 
     17 H17        -4.0090   -1.6383    5.5764 H         1 UNK         0.0691 
     18 H18        -5.2788   -0.9497    4.5930 H         1 UNK         0.0691 
     19 H19        -5.7054   -3.3295    5.0818 H         1 UNK         0.0706 
     20 H20        -4.1601   -3.8149    4.4226 H         1 UNK         0.0706 
     21 H21        -5.0197   -2.8285    0.9685 H         1 UNK         0.0706 
     22 H22        -3.7416   -3.4941    1.9584 H         1 UNK         0.0706 
     23 H23        -3.3397   -1.0957    1.4663 H         1 UNK         0.0691 
     24 H24        -4.8875   -0.6430    2.1411 H         1 UNK         0.0691 
     25 H25        -2.3038    0.3819    2.9381 H         1 UNK         0.0626 
     26 H26        -3.7526    0.8174    3.8162 H         1 UNK         0.0626 
     27 H27        -1.7265    1.2639    5.1195 H         1 UNK         0.0883 
     28 H28        -2.6901    0.1136    5.9552 H         1 UNK         0.0883 
     29 H29        -0.1511   -0.5119    4.2796 H         1 UNK         0.1467 
     30 H30        -1.1122   -1.7557    5.0746 H         1 UNK         0.1467 
     31 H31        -0.9330   -1.9407    7.7463 H         1 UNK         0.3980 
     32 H32        -5.2561   -5.2397    2.7942 H         1 UNK         0.0752 
     33 H33        -6.3655   -4.6942    1.6204 H         1 UNK         0.0752 
     34 H34        -7.4668   -6.0952    3.2953 H         1 UNK         0.0513 
     35 H35        -6.9140   -5.1293    4.6239 H         1 UNK         0.0513 
     36 H36        -8.6822   -4.2807    2.5388 H         1 UNK         0.4242 
@<TRIPOS>BOND
     1    1    2 1    
     2    1    6 1    
     3    1   17 1    
     4    1   18 1    
     5    2    3 1    
     6    2   19 1    
     7    2   20 1    
     8    3    4 1    
     9    3   14 1    
    10    4    5 1    
    11    4   21 1    
    12    4   22 1    
    13    5    6 1    
    14    5   23 1    
    15    5   24 1    
    16    6    7 1    
    17    7    8 1    
    18    7   25 1    
    19    7   26 1    
    20    8    9 1    
    21    8   27 1    
    22    8   28 1    
    23    9   10 1    
    24    9   29 1    
    25    9   30 1    
    26   10   11 2    
    27   10   12 2    
    28   10   13 1    
    29   13   31 1    
    30   14   15 1    
    31   14   32 1    
    32   14   33 1    
    33   15   16 1    
    34   15   34 1    
    35   15   35 1    
    36   16   36 1    
@<TRIPOS>SUBSTRUCTURE
     1 UNK         1 GROUP             0       ****    0 ROOT    
@<TRIPOS>MOLECULE
EPPS
36   36    1
SMALL
USER_CHARGES


@<TRIPOS>ATOM
      1 C1         -4.6668   -0.5884    3.8102 C.3       1 UNK         0.0986 
      2 C2         -5.9648   -1.3568    4.1813 C.3       1 UNK         0.1007 
      3 N3         -6.1711   -2.5191    3.2934 N.3       1 UNK        -0.7113 
      4 C4         -4.9862   -3.3935    3.4114 C.3       1 UNK         0.1007 
      5 C5         -3.6839   -2.6259    3.0503 C.3       1 UNK         0.0986 
      6 N6         -3.4846   -1.4647    3.9386 N.3       1 UNK        -0.7051 
      7 C7         -2.2339   -0.7762    3.5875 C.3       1 UNK         0.1131 
      8 C8         -1.8500    0.3334    4.5949 C.3       1 UNK        -0.1197 
      9 C9         -1.7521   -0.0917    6.0866 C.3       1 UNK        -0.2881 
     10 S10        -0.2474   -1.1510    6.4740 S.3       1 UNK         1.0110 
     11 O11        -0.1526   -2.2854    5.5490 O.2       1 UNK        -0.4915 
     12 O12        -0.1516   -1.3476    7.9242 O.2       1 UNK        -0.4915 
     13 O13         0.9136   -0.0664    6.0543 O.3       1 UNK        -0.5020 
     14 C14        -7.4249   -3.2061    3.6589 C.3       1 UNK         0.0871 
     15 C15        -7.9063   -4.3217    2.6949 C.3       1 UNK         0.1330 
     16 O16        -7.1839   -5.5405    2.8211 O.3       1 UNK        -0.6627 
     17 H17        -4.5782    0.2678    4.4800 H         1 UNK         0.0691 
     18 H18        -4.7484   -0.1818    2.7992 H         1 UNK         0.0691 
     19 H19        -6.8101   -0.6702    4.0990 H         1 UNK         0.0706 
     20 H20        -5.9229   -1.6650    5.2291 H         1 UNK         0.0706 
     21 H21        -5.0701   -4.2353    2.7241 H         1 UNK         0.0706 
     22 H22        -4.9070   -3.8184    4.4150 H         1 UNK         0.0706 
     23 H23        -2.8388   -3.3113    3.1429 H         1 UNK         0.0691 
     24 H24        -3.7151   -2.3185    2.0019 H         1 UNK         0.0691 
     25 H25        -1.4221   -1.5042    3.5445 H         1 UNK         0.0626 
     26 H26        -2.3073   -0.3505    2.5835 H         1 UNK         0.0626 
     27 H27        -0.8900    0.7475    4.2818 H         1 UNK         0.0883 
     28 H28        -2.5327    1.1764    4.4815 H         1 UNK         0.0883 
     29 H29        -2.6114   -0.6806    6.3993 H         1 UNK         0.1467 
     30 H30        -1.6844    0.7703    6.7458 H         1 UNK         0.1467 
     31 H31         0.9910    0.5626    6.7976 H         1 UNK         0.3980 
     32 H32        -8.1999   -2.4400    3.5790 H         1 UNK         0.0752 
     33 H33        -7.4986   -3.5163    4.7039 H         1 UNK         0.0752 
     34 H34        -8.9589   -4.5315    2.8939 H         1 UNK         0.0513 
     35 H35        -7.8717   -3.9685    1.6625 H         1 UNK         0.0513 
     36 H36        -7.4069   -5.9373    3.6770 H         1 UNK         0.4242 
@<TRIPOS>BOND
     1    1    2 1    
     2    1    6 1    
     3    1   17 1    
     4    1   18 1    
     5    2    3 1    
     6    2   19 1    
     7    2   20 1    
     8    3    4 1    
     9    3   14 1    
    10    4    5 1    
    11    4   21 1    
    12    4   22 1    
    13    5    6 1    
    14    5   23 1    
    15    5   24 1    
    16    6    7 1    
    17    7    8 1    
    18    7   25 1    
    19    7   26 1    
    20    8    9 1    
    21    8   27 1    
    22    8   28 1    
    23    9   10 1    
    24    9   29 1    
    25    9   30 1    
    26   10   11 2    
    27   10   12 2    
    28   10   13 1    
    29   13   31 1    
    30   14   15 1    
    31   14   32 1    
    32   14   33 1    
    33   15   16 1    
    34   15   34 1    
    35   15   35 1    
    36   16   36 1    
@<TRIPOS>SUBSTRUCTURE
     1 UNK         1 GROUP             0       ****    0 ROOT    
@<TRIPOS>MOLECULE
EPPS
36   36    1
SMALL
USER_CHARGES


@<TRIPOS>ATOM
      1 C1         -4.1277   -1.1514    2.5199 C.3       1 UNK         0.0986 
      2 C2         -5.5457   -1.6943    2.1912 C.3       1 UNK         0.1007 
      3 N3         -5.9523   -2.7401    3.1517 N.3       1 UNK        -0.7113 
      4 C4         -5.9190   -2.1531    4.5095 C.3       1 UNK         0.1007 
      5 C5         -4.5027   -1.6114    4.8497 C.3       1 UNK         0.0986 
      6 N6         -4.0948   -0.5773    3.8790 N.3       1 UNK        -0.7051 
      7 C7         -2.8123    0.0538    4.2207 C.3       1 UNK         0.1131 
      8 C8         -1.5604   -0.8499    4.0863 C.3       1 UNK        -0.1197 
      9 C9         -0.3058   -0.3237    4.8273 C.3       1 UNK        -0.2881 
     10 S10        -0.3377   -0.7011    6.6692 S.3       1 UNK         1.0110 
     11 O11        -1.6135   -0.2802    7.2582 O.2       1 UNK        -0.4915 
     12 O12         0.9418   -0.3111    7.2703 O.2       1 UNK        -0.4915 
     13 O13        -0.3501   -2.3411    6.5690 O.3       1 UNK        -0.5020 
     14 C14        -7.2868   -3.2553    2.7869 C.3       1 UNK         0.0871 
     15 C15        -7.7259   -4.4997    3.5925 C.3       1 UNK         0.1330 
     16 O16        -6.8113   -5.5602    3.3708 O.3       1 UNK        -0.6627 
     17 H17        -3.8577   -0.3877    1.7878 H         1 UNK         0.0691 
     18 H18        -3.3980   -1.9565    2.4108 H         1 UNK         0.0691 
     19 H19        -5.5358   -2.1043    1.1790 H         1 UNK         0.0706 
     20 H20        -6.2630   -0.8697    2.1798 H         1 UNK         0.0706 
     21 H21        -6.1798   -2.9040    5.2562 H         1 UNK         0.0706 
     22 H22        -6.6559   -1.3523    4.6102 H         1 UNK         0.0706 
     23 H23        -4.5138   -1.1897    5.8569 H         1 UNK         0.0691 
     24 H24        -3.7973   -2.4437    4.8738 H         1 UNK         0.0691 
     25 H25        -2.6864    0.9163    3.5623 H         1 UNK         0.0626 
     26 H26        -2.8703    0.5000    5.2146 H         1 UNK         0.0626 
     27 H27        -1.7616   -1.8995    4.3019 H         1 UNK         0.0883 
     28 H28        -1.2948   -0.8416    3.0275 H         1 UNK         0.0883 
     29 H29        -0.1943    0.7555    4.7463 H         1 UNK         0.1467 
     30 H30         0.6068   -0.7812    4.4517 H         1 UNK         0.1467 
     31 H31         0.5709   -2.6182    6.3994 H         1 UNK         0.3980 
     32 H32        -7.4124   -3.4528    1.7196 H         1 UNK         0.0752 
     33 H33        -8.0224   -2.4698    2.9776 H         1 UNK         0.0752 
     34 H34        -7.8084   -4.2802    4.6577 H         1 UNK         0.0513 
     35 H35        -8.7213   -4.8143    3.2747 H         1 UNK         0.0513 
     36 H36        -5.9289   -5.1619    3.4536 H         1 UNK         0.4242 
@<TRIPOS>BOND
     1    1    2 1    
     2    1    6 1    
     3    1   17 1    
     4    1   18 1    
     5    2    3 1    
     6    2   19 1    
     7    2   20 1    
     8    3    4 1    
     9    3   14 1    
    10    4    5 1    
    11    4   21 1    
    12    4   22 1    
    13    5    6 1    
    14    5   23 1    
    15    5   24 1    
    16    6    7 1    
    17    7    8 1    
    18    7   25 1    
    19    7   26 1    
    20    8    9 1    
    21    8   27 1    
    22    8   28 1    
    23    9   10 1    
    24    9   29 1    
    25    9   30 1    
    26   10   11 2    
    27   10   12 2    
    28   10   13 1    
    29   13   31 1    
    30   14   15 1    
    31   14   32 1    
    32   14   33 1    
    33   15   16 1    
    34   15   34 1    
    35   15   35 1    
    36   16   36 1    
@<TRIPOS>SUBSTRUCTURE
     1 UNK         1 GROUP             0       ****    0 ROOT    
@<TRIPOS>MOLECULE
EPPS
36   36    1
SMALL
USER_CHARGES


@<TRIPOS>ATOM
      1 C1         -3.1689   -2.1031    2.4303 C.3       1 UNK         0.0986 
      2 C2         -4.2828   -3.1866    2.4222 C.3       1 UNK         0.1007 
      3 N3         -5.6154   -2.5550    2.3593 N.3       1 UNK        -0.7113 
      4 C4         -5.7661   -1.6661    3.5265 C.3       1 UNK         0.1007 
      5 C5         -4.6503   -0.5841    3.5370 C.3       1 UNK         0.0986 
      6 N6         -3.3091   -1.2042    3.5933 N.3       1 UNK        -0.7051 
      7 C7         -2.2293   -0.2070    3.5874 C.3       1 UNK         0.1131 
      8 C8         -2.1752    0.6285    4.8874 C.3       1 UNK        -0.1197 
      9 C9         -2.0413   -0.1768    6.2071 C.3       1 UNK        -0.2881 
     10 S10        -0.3912   -1.0602    6.3510 S.3       1 UNK         1.0110 
     11 O11        -0.3515   -2.2243    5.4604 O.2       1 UNK        -0.4915 
     12 O12         0.6968   -0.0760    6.3690 O.2       1 UNK        -0.4915 
     13 O13        -0.5743   -1.6256    7.8823 O.3       1 UNK        -0.5020 
     14 C14        -6.7255   -3.5200    2.2248 C.3       1 UNK         0.0871 
     15 C15        -6.8752   -4.6514    3.2796 C.3       1 UNK         0.1330 
     16 O16        -7.3389   -4.1864    4.5402 O.3       1 UNK        -0.6627 
     17 H17        -3.1925   -1.5406    1.4935 H         1 UNK         0.0691 
     18 H18        -2.1979   -2.6018    2.4636 H         1 UNK         0.0691 
     19 H19        -4.1813   -3.8116    3.3119 H         1 UNK         0.0706 
     20 H20        -4.1381   -3.8435    1.5622 H         1 UNK         0.0706 
     21 H21        -5.7244   -2.2287    4.4610 H         1 UNK         0.0706 
     22 H22        -6.7427   -1.1788    3.5017 H         1 UNK         0.0706 
     23 H23        -4.7481    0.0614    2.6608 H         1 UNK         0.0691 
     24 H24        -4.8087    0.0536    4.4075 H         1 UNK         0.0691 
     25 H25        -2.3278    0.4559    2.7239 H         1 UNK         0.0626 
     26 H26        -1.2714   -0.7179    3.4687 H         1 UNK         0.0626 
     27 H27        -1.3264    1.3105    4.8082 H         1 UNK         0.0883 
     28 H28        -3.0336    1.2999    4.9305 H         1 UNK         0.0883 
     29 H29        -2.8072   -0.9432    6.3009 H         1 UNK         0.1467 
     30 H30        -2.1058    0.4686    7.0800 H         1 UNK         0.1467 
     31 H31        -1.1307   -2.4262    7.8194 H         1 UNK         0.3980 
     32 H32        -6.5277   -4.0307    1.2800 H         1 UNK         0.0752 
     33 H33        -7.6888   -3.0515    2.0137 H         1 UNK         0.0752 
     34 H34        -7.5998   -5.3774    2.9064 H         1 UNK         0.0513 
     35 H35        -5.9494   -5.2167    3.3941 H         1 UNK         0.0513 
     36 H36        -7.4334   -4.9517    5.1281 H         1 UNK         0.4242 
@<TRIPOS>BOND
     1    1    2 1    
     2    1    6 1    
     3    1   17 1    
     4    1   18 1    
     5    2    3 1    
     6    2   19 1    
     7    2   20 1    
     8    3    4 1    
     9    3   14 1    
    10    4    5 1    
    11    4   21 1    
    12    4   22 1    
    13    5    6 1    
    14    5   23 1    
    15    5   24 1    
    16    6    7 1    
    17    7    8 1    
    18    7   25 1    
    19    7   26 1    
    20    8    9 1    
    21    8   27 1    
    22    8   28 1    
    23    9   10 1    
    24    9   29 1    
    25    9   30 1    
    26   10   11 2    
    27   10   12 2    
    28   10   13 1    
    29   13   31 1    
    30   14   15 1    
    31   14   32 1    
    32   14   33 1    
    33   15   16 1    
    34   15   34 1    
    35   15   35 1    
    36   16   36 1    
@<TRIPOS>SUBSTRUCTURE
     1 UNK         1 GROUP             0       ****    0 ROOT    
@<TRIPOS>MOLECULE
EPPS
36   36    1
SMALL
USER_CHARGES


@<TRIPOS>ATOM
      1 C1         -4.6348   -1.5919    5.0291 C.3       1 UNK         0.0986 
      2 C2         -5.4125   -2.9249    5.2117 C.3       1 UNK         0.1007 
      3 N3         -6.1577   -3.2797    3.9855 N.3       1 UNK        -0.7113 
      4 C4         -5.1666   -3.3984    2.8951 C.3       1 UNK         0.1007 
      5 C5         -4.3930   -2.0645    2.7020 C.3       1 UNK         0.0986 
      6 N6         -3.6560   -1.7007    3.9277 N.3       1 UNK        -0.7051 
      7 C7         -2.9128   -0.4507    3.7113 C.3       1 UNK         0.1131 
      8 C8         -1.9534   -0.1069    4.8722 C.3       1 UNK        -0.1197 
      9 C9         -0.8955   -1.1998    5.1710 C.3       1 UNK        -0.2881 
     10 S10         0.2234   -0.7422    6.6051 S.3       1 UNK         1.0110 
     11 O11         1.2210   -1.7995    6.8045 O.2       1 UNK        -0.4915 
     12 O12        -0.5737   -0.2243    7.7222 O.2       1 UNK        -0.4915 
     13 O13         0.9866    0.5360    5.9100 O.3       1 UNK        -0.5020 
     14 C14        -6.8958   -4.5426    4.1805 C.3       1 UNK         0.0871 
     15 C15        -8.1600   -4.6991    3.3011 C.3       1 UNK         0.1330 
     16 O16        -7.8712   -4.8727    1.9229 O.3       1 UNK        -0.6627 
     17 H17        -4.1260   -1.3677    5.9675 H         1 UNK         0.0691 
     18 H18        -5.3351   -0.7714    4.8544 H         1 UNK         0.0691 
     19 H19        -6.1057   -2.8077    6.0473 H         1 UNK         0.0706 
     20 H20        -4.7209   -3.7214    5.4982 H         1 UNK         0.0706 
     21 H21        -5.6520   -3.6477    1.9523 H         1 UNK         0.0706 
     22 H22        -4.4603   -4.2087    3.0932 H         1 UNK         0.0706 
     23 H23        -3.6949   -2.1826    1.8707 H         1 UNK         0.0691 
     24 H24        -5.0868   -1.2723    2.4097 H         1 UNK         0.0691 
     25 H25        -2.3124   -0.5521    2.8040 H         1 UNK         0.0626 
     26 H26        -3.5997    0.3809    3.5341 H         1 UNK         0.0626 
     27 H27        -1.4400    0.8165    4.5999 H         1 UNK         0.0883 
     28 H28        -2.5206    0.1592    5.7654 H         1 UNK         0.0883 
     29 H29        -0.2377   -1.3811    4.3243 H         1 UNK         0.1467 
     30 H30        -1.3578   -2.1442    5.4498 H         1 UNK         0.1467 
     31 H31         0.4143    1.3139    6.0536 H         1 UNK         0.3980 
     32 H32        -7.2986   -4.5178    5.1961 H         1 UNK         0.0752 
     33 H33        -6.2874   -5.4499    4.1969 H         1 UNK         0.0752 
     34 H34        -8.7219   -5.5701    3.6430 H         1 UNK         0.0513 
     35 H35        -8.8286   -3.8477    3.4431 H         1 UNK         0.0513 
     36 H36        -7.5246   -4.0279    1.5997 H         1 UNK         0.4242 
@<TRIPOS>BOND
     1    1    2 1    
     2    1    6 1    
     3    1   17 1    
     4    1   18 1    
     5    2    3 1    
     6    2   19 1    
     7    2   20 1    
     8    3    4 1    
     9    3   14 1    
    10    4    5 1    
    11    4   21 1    
    12    4   22 1    
    13    5    6 1    
    14    5   23 1    
    15    5   24 1    
    16    6    7 1    
    17    7    8 1    
    18    7   25 1    
    19    7   26 1    
    20    8    9 1    
    21    8   27 1    
    22    8   28 1    
    23    9   10 1    
    24    9   29 1    
    25    9   30 1    
    26   10   11 2    
    27   10   12 2    
    28   10   13 1    
    29   13   31 1    
    30   14   15 1    
    31   14   32 1    
    32   14   33 1    
    33   15   16 1    
    34   15   34 1    
    35   15   35 1    
    36   16   36 1    
@<TRIPOS>SUBSTRUCTURE
     1 UNK         1 GROUP             0       ****    0 ROOT    
@<TRIPOS>MOLECULE
EPPS
36   36    1
SMALL
USER_CHARGES


@<TRIPOS>ATOM
      1 C1         -4.1465   -1.4788    2.4736 C.3       1 UNK         0.0986 
      2 C2         -5.5941   -1.9429    2.1533 C.3       1 UNK         0.1007 
      3 N3         -6.0652   -2.9381    3.1377 N.3       1 UNK        -0.7113 
      4 C4         -5.9988   -2.3210    4.4807 C.3       1 UNK         0.1007 
      5 C5         -4.5527   -1.8585    4.8122 C.3       1 UNK         0.0986 
      6 N6         -4.0813   -0.8745    3.8185 N.3       1 UNK        -0.7051 
      7 C7         -2.7652   -0.3084    4.1458 C.3       1 UNK         0.1131 
      8 C8         -1.5673   -1.2859    4.0426 C.3       1 UNK        -0.1197 
      9 C9         -0.2695   -0.7853    4.7219 C.3       1 UNK        -0.2881 
     10 S10        -0.3589   -0.8896    6.5945 S.3       1 UNK         1.0110 
     11 O11        -0.5507   -2.2850    7.0049 O.2       1 UNK        -0.4915 
     12 O12        -1.2060    0.1855    7.1205 O.2       1 UNK        -0.4915 
     13 O13         1.2001   -0.4847    6.9167 O.3       1 UNK        -0.5020 
     14 C14        -7.4279   -3.3798    2.7809 C.3       1 UNK         0.0871 
     15 C15        -7.9441   -4.5747    3.6154 C.3       1 UNK         0.1330 
     16 O16        -7.0961   -5.6946    3.4231 O.3       1 UNK        -0.6627 
     17 H17        -3.8290   -0.7516    1.7237 H         1 UNK         0.0691 
     18 H18        -3.4669   -2.3294    2.3873 H         1 UNK         0.0691 
     19 H19        -5.6068   -2.3775    1.1515 H         1 UNK         0.0706 
     20 H20        -6.2600   -1.0768    2.1191 H         1 UNK         0.0706 
     21 H21        -6.3063   -3.0360    5.2448 H         1 UNK         0.0706 
     22 H22        -6.6856   -1.4745    4.5594 H         1 UNK         0.0706 
     23 H23        -4.5400   -1.4135    5.8092 H         1 UNK         0.0691 
     24 H24        -3.8997   -2.7318    4.8569 H         1 UNK         0.0691 
     25 H25        -2.5878    0.5273    3.4650 H         1 UNK         0.0626 
     26 H26        -2.8001    0.1664    5.1274 H         1 UNK         0.0626 
     27 H27        -1.8195   -2.3033    4.3430 H         1 UNK         0.0883 
     28 H28        -1.3246   -1.3665    2.9814 H         1 UNK         0.0883 
     29 H29        -0.0355    0.2487    4.4782 H         1 UNK         0.1467 
     30 H30         0.5875   -1.3947    4.4424 H         1 UNK         0.1467 
     31 H31         1.2531    0.4895    6.8632 H         1 UNK         0.3980 
     32 H32        -7.5632   -3.5958    1.7184 H         1 UNK         0.0752 
     33 H33        -8.1146   -2.5464    2.9495 H         1 UNK         0.0752 
     34 H34        -8.0151   -4.3241    4.6746 H         1 UNK         0.0513 
     35 H35        -8.9564   -4.8353    3.3021 H         1 UNK         0.0513 
     36 H36        -6.1911   -5.3495    3.4997 H         1 UNK         0.4242 
@<TRIPOS>BOND
     1    1    2 1    
     2    1    6 1    
     3    1   17 1    
     4    1   18 1    
     5    2    3 1    
     6    2   19 1    
     7    2   20 1    
     8    3    4 1    
     9    3   14 1    
    10    4    5 1    
    11    4   21 1    
    12    4   22 1    
    13    5    6 1    
    14    5   23 1    
    15    5   24 1    
    16    6    7 1    
    17    7    8 1    
    18    7   25 1    
    19    7   26 1    
    20    8    9 1    
    21    8   27 1    
    22    8   28 1    
    23    9   10 1    
    24    9   29 1    
    25    9   30 1    
    26   10   11 2    
    27   10   12 2    
    28   10   13 1    
    29   13   31 1    
    30   14   15 1    
    31   14   32 1    
    32   14   33 1    
    33   15   16 1    
    34   15   34 1    
    35   15   35 1    
    36   16   36 1    
@<TRIPOS>SUBSTRUCTURE
     1 UNK         1 GROUP             0       ****    0 ROOT    
@<TRIPOS>MOLECULE
EPPS
36   36    1
SMALL
USER_CHARGES


@<TRIPOS>ATOM
      1 C1         -5.5879   -0.4949    4.3245 C.3       1 UNK         0.0986 
      2 C2         -6.5581   -1.6655    4.6440 C.3       1 UNK         0.1007 
      3 N3         -6.4136   -2.7574    3.6584 N.3       1 UNK        -0.7113 
      4 C4         -5.0081   -3.2124    3.7184 C.3       1 UNK         0.1007 
      5 C5         -4.0300   -2.0475    3.3977 C.3       1 UNK         0.0986 
      6 N6         -4.1841   -0.9474    4.3718 N.3       1 UNK        -0.7051 
      7 C7         -3.2856    0.1819    4.0909 C.3       1 UNK         0.1131 
      8 C8         -1.7965   -0.1575    4.3208 C.3       1 UNK        -0.1197 
      9 C9         -1.4628   -0.6400    5.7538 C.3       1 UNK        -0.2881 
     10 S10         0.3663   -0.9937    5.9491 S.3       1 UNK         1.0110 
     11 O11         1.1242    0.2606    5.8902 O.2       1 UNK        -0.4915 
     12 O12         0.7387   -2.1514    5.1281 O.2       1 UNK        -0.4915 
     13 O13         0.3386   -1.4801    7.5179 O.3       1 UNK        -0.5020 
     14 C14        -7.3479   -3.8565    3.9693 C.3       1 UNK         0.0871 
     15 C15        -7.7698   -4.7154    2.7526 C.3       1 UNK         0.1330 
     16 O16        -6.7191   -5.5163    2.2350 O.3       1 UNK        -0.6627 
     17 H17        -5.7467    0.3001    5.0560 H         1 UNK         0.0691 
     18 H18        -5.8318   -0.0672    3.3487 H         1 UNK         0.0691 
     19 H19        -7.5800   -1.2809    4.6265 H         1 UNK         0.0706 
     20 H20        -6.3840   -2.0251    5.6614 H         1 UNK         0.0706 
     21 H21        -4.8273   -4.0128    3.0020 H         1 UNK         0.0706 
     22 H22        -4.7733   -3.6299    4.7009 H         1 UNK         0.0706 
     23 H23        -3.0138   -2.4423    3.4301 H         1 UNK         0.0691 
     24 H24        -4.1910   -1.6942    2.3762 H         1 UNK         0.0691 
     25 H25        -3.4330    0.5477    3.0715 H         1 UNK         0.0626 
     26 H26        -3.5437    1.0103    4.7551 H         1 UNK         0.0626 
     27 H27        -1.4467   -0.8654    3.5680 H         1 UNK         0.0883 
     28 H28        -1.2218    0.7478    4.1155 H         1 UNK         0.0883 
     29 H29        -1.9758   -1.5659    6.0045 H         1 UNK         0.1467 
     30 H30        -1.7135    0.1019    6.5080 H         1 UNK         0.1467 
     31 H31         0.3172   -0.6688    8.0618 H         1 UNK         0.3980 
     32 H32        -8.2853   -3.3923    4.2853 H         1 UNK         0.0752 
     33 H33        -7.0897   -4.4669    4.8380 H         1 UNK         0.0752 
     34 H34        -8.5844   -5.3765    3.0533 H         1 UNK         0.0513 
     35 H35        -8.1847   -4.0816    1.9664 H         1 UNK         0.0513 
     36 H36        -6.0839   -4.9137    1.8208 H         1 UNK         0.4242 
@<TRIPOS>BOND
     1    1    2 1    
     2    1    6 1    
     3    1   17 1    
     4    1   18 1    
     5    2    3 1    
     6    2   19 1    
     7    2   20 1    
     8    3    4 1    
     9    3   14 1    
    10    4    5 1    
    11    4   21 1    
    12    4   22 1    
    13    5    6 1    
    14    5   23 1    
    15    5   24 1    
    16    6    7 1    
    17    7    8 1    
    18    7   25 1    
    19    7   26 1    
    20    8    9 1    
    21    8   27 1    
    22    8   28 1    
    23    9   10 1    
    24    9   29 1    
    25    9   30 1    
    26   10   11 2    
    27   10   12 2    
    28   10   13 1    
    29   13   31 1    
    30   14   15 1    
    31   14   32 1    
    32   14   33 1    
    33   15   16 1    
    34   15   34 1    
    35   15   35 1    
    36   16   36 1    
@<TRIPOS>SUBSTRUCTURE
     1 UNK         1 GROUP             0       ****    0 ROOT    
@<TRIPOS>MOLECULE
EPPS
36   36    1
SMALL
USER_CHARGES


@<TRIPOS>ATOM
      1 C1         -4.6764   -1.5774    4.3211 C.3       1 UNK         0.0986 
      2 C2         -5.3137   -2.9794    4.1095 C.3       1 UNK         0.1007 
      3 N3         -5.7731   -3.1487    2.7145 N.3       1 UNK        -0.7113 
      4 C4         -4.5911   -2.9739    1.8446 C.3       1 UNK         0.1007 
      5 C5         -3.9539   -1.5714    2.0463 C.3       1 UNK         0.0986 
      6 N6         -3.5043   -1.3934    3.4406 N.3       1 UNK        -0.7051 
      7 C7         -2.8841   -0.0700    3.5999 C.3       1 UNK         0.1131 
      8 C8         -2.2057    0.1194    4.9745 C.3       1 UNK        -0.1197 
      9 C9         -1.1071   -0.9233    5.2965 C.3       1 UNK        -0.2881 
     10 S10        -0.3172   -0.5936    6.9627 S.3       1 UNK         1.0110 
     11 O11        -1.2969   -0.8226    8.0308 O.2       1 UNK        -0.4915 
     12 O12         0.4736    0.6401    6.9026 O.2       1 UNK        -0.4915 
     13 O13         0.7356   -1.8546    6.9697 O.3       1 UNK        -0.5020 
     14 C14        -6.3728   -4.4806    2.5042 C.3       1 UNK         0.0871 
     15 C15        -7.8865   -4.5688    2.8157 C.3       1 UNK         0.1330 
     16 O16        -8.1863   -4.4550    4.1978 O.3       1 UNK        -0.6627 
     17 H17        -4.3799   -1.4967    5.3677 H         1 UNK         0.0691 
     18 H18        -5.4227   -0.7976    4.1511 H         1 UNK         0.0691 
     19 H19        -6.1434   -3.0826    4.8077 H         1 UNK         0.0706 
     20 H20        -4.5938   -3.7555    4.3816 H         1 UNK         0.0706 
     21 H21        -4.8819   -3.0729    0.7967 H         1 UNK         0.0706 
     22 H22        -3.8450   -3.7510    2.0296 H         1 UNK         0.0706 
     23 H23        -3.1048   -1.4724    1.3669 H         1 UNK         0.0691 
     24 H24        -4.6681   -0.7952    1.7599 H         1 UNK         0.0691 
     25 H25        -2.1172    0.0537    2.8313 H         1 UNK         0.0626 
     26 H26        -3.6179    0.7226    3.4324 H         1 UNK         0.0626 
     27 H27        -1.7544    1.1135    4.9794 H         1 UNK         0.0883 
     28 H28        -2.9555    0.1688    5.7655 H         1 UNK         0.0883 
     29 H29        -0.3005   -0.9115    4.5676 H         1 UNK         0.1467 
     30 H30        -1.5042   -1.9347    5.3475 H         1 UNK         0.1467 
     31 H31         1.4989   -1.5845    6.4230 H         1 UNK         0.3980 
     32 H32        -5.8145   -5.3230    2.9193 H         1 UNK         0.0752 
     33 H33        -6.3260   -4.6806    1.4309 H         1 UNK         0.0752 
     34 H34        -8.4355   -3.8160    2.2464 H         1 UNK         0.0513 
     35 H35        -8.2633   -5.5309    2.4644 H         1 UNK         0.0513 
     36 H36        -8.0013   -3.5386    4.4512 H         1 UNK         0.4242 
@<TRIPOS>BOND
     1    1    2 1    
     2    1    6 1    
     3    1   17 1    
     4    1   18 1    
     5    2    3 1    
     6    2   19 1    
     7    2   20 1    
     8    3    4 1    
     9    3   14 1    
    10    4    5 1    
    11    4   21 1    
    12    4   22 1    
    13    5    6 1    
    14    5   23 1    
    15    5   24 1    
    16    6    7 1    
    17    7    8 1    
    18    7   25 1    
    19    7   26 1    
    20    8    9 1    
    21    8   27 1    
    22    8   28 1    
    23    9   10 1    
    24    9   29 1    
    25    9   30 1    
    26   10   11 2    
    27   10   12 2    
    28   10   13 1    
    29   13   31 1    
    30   14   15 1    
    31   14   32 1    
    32   14   33 1    
    33   15   16 1    
    34   15   34 1    
    35   15   35 1    
    36   16   36 1    
@<TRIPOS>SUBSTRUCTURE
     1 UNK         1 GROUP             0       ****    0 ROOT    
@<TRIPOS>MOLECULE
EPPS
36   36    1
SMALL
USER_CHARGES


@<TRIPOS>ATOM
      1 C1         -4.3488   -0.6840    3.5622 C.3       1 UNK         0.0986 
      2 C2         -5.2365   -1.9721    3.5348 C.3       1 UNK         0.1007 
      3 N3         -4.4725   -3.2349    3.5921 N.3       1 UNK        -0.7113 
      4 C4         -3.3884   -3.1988    2.5894 C.3       1 UNK         0.1007 
      5 C5         -2.5051   -1.9094    2.6464 C.3       1 UNK         0.0986 
      6 N6         -2.9037   -0.9638    3.7071 N.3       1 UNK        -0.7051 
      7 C7         -2.0832    0.2542    3.6792 C.3       1 UNK         0.1131 
      8 C8         -2.1026    0.9870    5.0405 C.3       1 UNK        -0.1197 
      9 C9         -1.1191    0.4607    6.1272 C.3       1 UNK        -0.2881 
     10 S10        -1.1458   -1.3982    6.4337 S.3       1 UNK         1.0110 
     11 O11        -0.8574   -1.6647    7.8473 O.2       1 UNK        -0.4915 
     12 O12        -0.4066   -2.0915    5.3740 O.2       1 UNK        -0.4915 
     13 O13        -2.7441   -1.6696    6.1924 O.3       1 UNK        -0.5020 
     14 C14        -5.3021   -4.4426    3.4240 C.3       1 UNK         0.0871 
     15 C15        -6.3504   -4.7167    4.5333 C.3       1 UNK         0.1330 
     16 O16        -7.5030   -3.8874    4.4455 O.3       1 UNK        -0.6627 
     17 H17        -4.6948   -0.0500    4.3795 H         1 UNK         0.0691 
     18 H18        -4.5288   -0.1098    2.6502 H         1 UNK         0.0691 
     19 H19        -5.8731   -1.9562    2.6473 H         1 UNK         0.0706 
     20 H20        -5.9107   -1.9244    4.3908 H         1 UNK         0.0706 
     21 H21        -3.8040   -3.2984    1.5838 H         1 UNK         0.0706 
     22 H22        -2.7415   -4.0670    2.7309 H         1 UNK         0.0706 
     23 H23        -1.4661   -2.2075    2.8015 H         1 UNK         0.0691 
     24 H24        -2.5297   -1.4148    1.6723 H         1 UNK         0.0691 
     25 H25        -1.0468   -0.0276    3.4768 H         1 UNK         0.0626 
     26 H26        -2.3721    0.9234    2.8649 H         1 UNK         0.0626 
     27 H27        -1.8898    2.0432    4.8671 H         1 UNK         0.0883 
     28 H28        -3.1039    0.9601    5.4716 H         1 UNK         0.0883 
     29 H29        -1.3450    0.9077    7.0929 H         1 UNK         0.1467 
     30 H30        -0.0842    0.7056    5.8993 H         1 UNK         0.1467 
     31 H31        -2.8900   -1.4974    5.2191 H         1 UNK         0.3980 
     32 H32        -4.6023   -5.2775    3.5062 H         1 UNK         0.0752 
     33 H33        -5.7269   -4.5781    2.4269 H         1 UNK         0.0752 
     34 H34        -6.6754   -5.7566    4.4652 H         1 UNK         0.0513 
     35 H35        -5.8905   -4.6197    5.5186 H         1 UNK         0.0513 
     36 H36        -8.0031   -4.1470    3.6569 H         1 UNK         0.4242 
@<TRIPOS>BOND
     1    1    2 1    
     2    1    6 1    
     3    1   17 1    
     4    1   18 1    
     5    2    3 1    
     6    2   19 1    
     7    2   20 1    
     8    3    4 1    
     9    3   14 1    
    10    4    5 1    
    11    4   21 1    
    12    4   22 1    
    13    5    6 1    
    14    5   23 1    
    15    5   24 1    
    16    6    7 1    
    17    7    8 1    
    18    7   25 1    
    19    7   26 1    
    20    8    9 1    
    21    8   27 1    
    22    8   28 1    
    23    9   10 1    
    24    9   29 1    
    25    9   30 1    
    26   10   11 2    
    27   10   12 2    
    28   10   13 1    
    29   13   31 1    
    30   14   15 1    
    31   14   32 1    
    32   14   33 1    
    33   15   16 1    
    34   15   34 1    
    35   15   35 1    
    36   16   36 1    
@<TRIPOS>SUBSTRUCTURE
     1 UNK         1 GROUP             0       ****    0 ROOT    
@<TRIPOS>MOLECULE
EPPS
36   36    1
SMALL
USER_CHARGES


@<TRIPOS>ATOM
      1 C1         -4.7790   -1.3060    4.2665 C.3       1 UNK         0.0986 
      2 C2         -5.6959   -2.5281    4.5525 C.3       1 UNK         0.1007 
      3 N3         -5.6575   -3.4955    3.4356 N.3       1 UNK        -0.7113 
      4 C4         -4.2553   -3.9117    3.2374 C.3       1 UNK         0.1007 
      5 C5         -3.3465   -2.6862    2.9456 C.3       1 UNK         0.0986 
      6 N6         -3.3771   -1.7286    4.0679 N.3       1 UNK        -0.7051 
      7 C7         -2.4840   -0.5961    3.7827 C.3       1 UNK         0.1131 
      8 C8         -2.3046    0.3526    4.9915 C.3       1 UNK        -0.1197 
      9 C9         -1.8326   -0.3020    6.3196 C.3       1 UNK        -0.2881 
     10 S10        -0.0322   -0.8450    6.2980 S.3       1 UNK         1.0110 
     11 O11         0.2507   -1.6764    5.1232 O.2       1 UNK        -0.4915 
     12 O12         0.3612   -1.2776    7.6430 O.2       1 UNK        -0.4915 
     13 O13         0.6511    0.6277    6.0435 O.3       1 UNK        -0.5020 
     14 C14        -6.5024   -4.6817    3.6733 C.3       1 UNK         0.0871 
     15 C15        -8.0240   -4.4140    3.8092 C.3       1 UNK         0.1330 
     16 O16        -8.5923   -3.8889    2.6160 O.3       1 UNK        -0.6627 
     17 H17        -4.8515   -0.6247    5.1152 H         1 UNK         0.0691 
     18 H18        -5.1506   -0.7563    3.3983 H         1 UNK         0.0691 
     19 H19        -6.7117   -2.1576    4.6958 H         1 UNK         0.0706 
     20 H20        -5.4034   -3.0003    5.4935 H         1 UNK         0.0706 
     21 H21        -4.1889   -4.6043    2.3957 H         1 UNK         0.0706 
     22 H22        -3.8772   -4.4516    4.1092 H         1 UNK         0.0706 
     23 H23        -2.3252   -3.0388    2.7867 H         1 UNK         0.0691 
     24 H24        -3.6553   -2.2094    2.0119 H         1 UNK         0.0691 
     25 H25        -1.5038   -0.9751    3.4885 H         1 UNK         0.0626 
     26 H26        -2.8557   -0.0304    2.9245 H         1 UNK         0.0626 
     27 H27        -1.5882    1.1240    4.7036 H         1 UNK         0.0883 
     28 H28        -3.2255    0.9156    5.1486 H         1 UNK         0.0883 
     29 H29        -2.4038   -1.1964    6.5581 H         1 UNK         0.1467 
     30 H30        -1.9246    0.3827    7.1592 H         1 UNK         0.1467 
     31 H31         0.6552    1.0871    6.9055 H         1 UNK         0.3980 
     32 H32        -6.1837   -5.1248    4.6203 H         1 UNK         0.0752 
     33 H33        -6.3345   -5.4944    2.9630 H         1 UNK         0.0752 
     34 H34        -8.5249   -5.3556    4.0409 H         1 UNK         0.0513 
     35 H35        -8.2430   -3.7591    4.6534 H         1 UNK         0.0513 
     36 H36        -8.3973   -4.5057    1.8942 H         1 UNK         0.4242 
@<TRIPOS>BOND
     1    1    2 1    
     2    1    6 1    
     3    1   17 1    
     4    1   18 1    
     5    2    3 1    
     6    2   19 1    
     7    2   20 1    
     8    3    4 1    
     9    3   14 1    
    10    4    5 1    
    11    4   21 1    
    12    4   22 1    
    13    5    6 1    
    14    5   23 1    
    15    5   24 1    
    16    6    7 1    
    17    7    8 1    
    18    7   25 1    
    19    7   26 1    
    20    8    9 1    
    21    8   27 1    
    22    8   28 1    
    23    9   10 1    
    24    9   29 1    
    25    9   30 1    
    26   10   11 2    
    27   10   12 2    
    28   10   13 1    
    29   13   31 1    
    30   14   15 1    
    31   14   32 1    
    32   14   33 1    
    33   15   16 1    
    34   15   34 1    
    35   15   35 1    
    36   16   36 1    
@<TRIPOS>SUBSTRUCTURE
     1 UNK         1 GROUP             0       ****    0 ROOT    
@<TRIPOS>MOLECULE
EPPS
36   36    1
SMALL
USER_CHARGES


@<TRIPOS>ATOM
      1 C1         -5.4005   -0.2765    3.9347 C.3       1 UNK         0.0986 
      2 C2         -6.5369   -1.2689    4.3054 C.3       1 UNK         0.1007 
      3 N3         -6.3780   -2.5493    3.5844 N.3       1 UNK        -0.7113 
      4 C4         -5.0594   -3.0998    3.9641 C.3       1 UNK         0.1007 
      5 C5         -3.9156   -2.1141    3.5947 C.3       1 UNK         0.0986 
      6 N6         -4.0812   -0.8271    4.3012 N.3       1 UNK        -0.7051 
      7 C7         -3.0258    0.1396    3.9650 C.3       1 UNK         0.1131 
      8 C8         -1.6359   -0.2706    4.5000 C.3       1 UNK        -0.1197 
      9 C9         -1.5795   -0.4809    6.0348 C.3       1 UNK        -0.2881 
     10 S10         0.1491   -0.8819    6.6420 S.3       1 UNK         1.0110 
     11 O11         0.1175   -1.1147    8.0903 O.2       1 UNK        -0.4915 
     12 O12         1.1216    0.0346    6.0372 O.2       1 UNK        -0.4915 
     13 O13         0.3247   -2.3411    5.9077 O.3       1 UNK        -0.5020 
     14 C14        -7.4695   -3.4770    3.9389 C.3       1 UNK         0.0871 
     15 C15        -7.8074   -4.5280    2.8540 C.3       1 UNK         0.1330 
     16 O16        -6.7929   -5.5043    2.6783 O.3       1 UNK        -0.6627 
     17 H17        -5.5708    0.6633    4.4641 H         1 UNK         0.0691 
     18 H18        -5.4473   -0.0409    2.8685 H         1 UNK         0.0691 
     19 H19        -7.4933   -0.8109    4.0446 H         1 UNK         0.0706 
     20 H20        -6.5569   -1.4235    5.3873 H         1 UNK         0.0706 
     21 H21        -4.8704   -4.0438    3.4542 H         1 UNK         0.0706 
     22 H22        -5.0214   -3.3231    5.0333 H         1 UNK         0.0706 
     23 H23        -2.9682   -2.5783    3.8714 H         1 UNK         0.0691 
     24 H24        -3.8827   -1.9676    2.5123 H         1 UNK         0.0691 
     25 H25        -2.9789    0.2978    2.8845 H         1 UNK         0.0626 
     26 H26        -3.2800    1.1063    4.4064 H         1 UNK         0.0626 
     27 H27        -1.2648   -1.1398    3.9563 H         1 UNK         0.0883 
     28 H28        -0.9400    0.5262    4.2301 H         1 UNK         0.0883 
     29 H29        -2.2099   -1.3062    6.3583 H         1 UNK         0.1467 
     30 H30        -1.8823    0.4104    6.5793 H         1 UNK         0.1467 
     31 H31         0.6458   -2.1608    5.0036 H         1 UNK         0.3980 
     32 H32        -8.3823   -2.8794    4.0016 H         1 UNK         0.0752 
     33 H33        -7.4133   -3.9158    4.9379 H         1 UNK         0.0752 
     34 H34        -8.7284   -5.0416    3.1353 H         1 UNK         0.0513 
     35 H35        -8.0271   -4.0359    1.9045 H         1 UNK         0.0513 
     36 H36        -6.0384   -5.0553    2.2691 H         1 UNK         0.4242 
@<TRIPOS>BOND
     1    1    2 1    
     2    1    6 1    
     3    1   17 1    
     4    1   18 1    
     5    2    3 1    
     6    2   19 1    
     7    2   20 1    
     8    3    4 1    
     9    3   14 1    
    10    4    5 1    
    11    4   21 1    
    12    4   22 1    
    13    5    6 1    
    14    5   23 1    
    15    5   24 1    
    16    6    7 1    
    17    7    8 1    
    18    7   25 1    
    19    7   26 1    
    20    8    9 1    
    21    8   27 1    
    22    8   28 1    
    23    9   10 1    
    24    9   29 1    
    25    9   30 1    
    26   10   11 2    
    27   10   12 2    
    28   10   13 1    
    29   13   31 1    
    30   14   15 1    
    31   14   32 1    
    32   14   33 1    
    33   15   16 1    
    34   15   34 1    
    35   15   35 1    
    36   16   36 1    
@<TRIPOS>SUBSTRUCTURE
     1 UNK         1 GROUP             0       ****    0 ROOT    
@<TRIPOS>MOLECULE
EPPS
36   36    1
SMALL
USER_CHARGES


@<TRIPOS>ATOM
      1 C1         -5.0900   -0.2514    3.1427 C.3       1 UNK         0.0986 
      2 C2         -6.2043   -1.3345    3.1343 C.3       1 UNK         0.1007 
      3 N3         -5.7784   -2.5052    2.3426 N.3       1 UNK        -0.7113 
      4 C4         -4.5382   -3.0420    2.9331 C.3       1 UNK         0.1007 
      5 C5         -3.4248   -1.9575    2.9455 C.3       1 UNK         0.0986 
      6 N6         -3.8417   -0.7765    3.7318 N.3       1 UNK        -0.7051 
      7 C7         -2.8158    0.2765    3.7471 C.3       1 UNK         0.1131 
      8 C8         -1.5509   -0.1216    4.5390 C.3       1 UNK        -0.1197 
      9 C9         -1.8128   -0.4942    6.0203 C.3       1 UNK        -0.2881 
     10 S10        -0.2299   -0.9382    6.9225 S.3       1 UNK         1.0110 
     11 O11        -0.5459   -1.3751    8.2864 O.2       1 UNK        -0.4915 
     12 O12         0.7965    0.0787    6.6656 O.2       1 UNK        -0.4915 
     13 O13         0.1640   -2.2787    6.0575 O.3       1 UNK        -0.5020 
     14 C14        -6.8298   -3.5303    2.1837 C.3       1 UNK         0.0871 
     15 C15        -7.4958   -4.1327    3.4521 C.3       1 UNK         0.1330 
     16 O16        -6.6434   -5.0162    4.1684 O.3       1 UNK        -0.6627 
     17 H17        -5.4411    0.6053    3.7217 H         1 UNK         0.0691 
     18 H18        -4.9218    0.1145    2.1266 H         1 UNK         0.0691 
     19 H19        -7.1163   -0.9078    2.7122 H         1 UNK         0.0706 
     20 H20        -6.4391   -1.6153    4.1632 H         1 UNK         0.0706 
     21 H21        -4.1954   -3.9064    2.3609 H         1 UNK         0.0706 
     22 H22        -4.7047   -3.3923    3.9535 H         1 UNK         0.0706 
     23 H23        -2.5277   -2.4022    3.3779 H         1 UNK         0.0691 
     24 H24        -3.1659   -1.6766    1.9218 H         1 UNK         0.0691 
     25 H25        -2.5444    0.5655    2.7286 H         1 UNK         0.0626 
     26 H26        -3.2346    1.1690    4.2183 H         1 UNK         0.0626 
     27 H27        -1.0057   -0.9083    4.0158 H         1 UNK         0.0883 
     28 H28        -0.8698    0.7310    4.5097 H         1 UNK         0.0883 
     29 H29        -2.4728   -1.3531    6.1171 H         1 UNK         0.1467 
     30 H30        -2.2471    0.3320    6.5781 H         1 UNK         0.1467 
     31 H31        -0.3814   -3.0081    6.4098 H         1 UNK         0.3980 
     32 H32        -6.5726   -4.3130    1.4673 H         1 UNK         0.0752 
     33 H33        -7.6332   -3.0146    1.6533 H         1 UNK         0.0752 
     34 H34        -7.8827   -3.3529    4.1094 H         1 UNK         0.0513 
     35 H35        -8.3768   -4.6984    3.1435 H         1 UNK         0.0513 
     36 H36        -7.1399   -5.3691    4.9229 H         1 UNK         0.4242 
@<TRIPOS>BOND
     1    1    2 1    
     2    1    6 1    
     3    1   17 1    
     4    1   18 1    
     5    2    3 1    
     6    2   19 1    
     7    2   20 1    
     8    3    4 1    
     9    3   14 1    
    10    4    5 1    
    11    4   21 1    
    12    4   22 1    
    13    5    6 1    
    14    5   23 1    
    15    5   24 1    
    16    6    7 1    
    17    7    8 1    
    18    7   25 1    
    19    7   26 1    
    20    8    9 1    
    21    8   27 1    
    22    8   28 1    
    23    9   10 1    
    24    9   29 1    
    25    9   30 1    
    26   10   11 2    
    27   10   12 2    
    28   10   13 1    
    29   13   31 1    
    30   14   15 1    
    31   14   32 1    
    32   14   33 1    
    33   15   16 1    
    34   15   34 1    
    35   15   35 1    
    36   16   36 1    
@<TRIPOS>SUBSTRUCTURE
     1 UNK         1 GROUP             0       ****    0 ROOT    
@<TRIPOS>MOLECULE
EPPS
36   36    1
SMALL
USER_CHARGES


@<TRIPOS>ATOM
      1 C1         -3.9581   -1.5491    2.1854 C.3       1 UNK         0.0986 
      2 C2         -4.5769   -2.9622    2.0040 C.3       1 UNK         0.1007 
      3 N3         -5.7086   -3.1669    2.9290 N.3       1 UNK        -0.7113 
      4 C4         -5.2135   -2.9773    4.3087 C.3       1 UNK         0.1007 
      5 C5         -4.5848   -1.5671    4.4888 C.3       1 UNK         0.0986 
      6 N6         -3.4529   -1.3670    3.5601 N.3       1 UNK        -0.7051 
      7 C7         -2.8453   -0.0350    3.6954 C.3       1 UNK         0.1131 
      8 C8         -2.1105    0.1621    5.0395 C.3       1 UNK        -0.1197 
      9 C9         -0.9842   -0.8651    5.3112 C.3       1 UNK        -0.2881 
     10 S10        -0.1263   -0.5259    6.9414 S.3       1 UNK         1.0110 
     11 O11        -1.0547   -0.7691    8.0513 O.2       1 UNK        -0.4915 
     12 O12         0.6443    0.7186    6.8482 O.2       1 UNK        -0.4915 
     13 O13         0.9429   -1.7724    6.9003 O.3       1 UNK        -0.5020 
     14 C14        -6.2987   -4.5021    2.7072 C.3       1 UNK         0.0871 
     15 C15        -7.5798   -4.8216    3.5198 C.3       1 UNK         0.1330 
     16 O16        -8.6851   -4.0189    3.1242 O.3       1 UNK        -0.6627 
     17 H17        -4.6978   -0.7852    1.9325 H         1 UNK         0.0691 
     18 H18        -3.1406   -1.4320    1.4709 H         1 UNK         0.0691 
     19 H19        -3.8065   -3.7238    2.1488 H         1 UNK         0.0706 
     20 H20        -4.9184   -3.0644    0.9718 H         1 UNK         0.0706 
     21 H21        -4.4841   -3.7461    4.5749 H         1 UNK         0.0706 
     22 H22        -6.0339   -3.0708    5.0211 H         1 UNK         0.0706 
     23 H23        -5.3483   -0.7978    4.3496 H         1 UNK         0.0691 
     24 H24        -4.2461   -1.4798    5.5219 H         1 UNK         0.0691 
     25 H25        -2.1143    0.1011    2.8946 H         1 UNK         0.0626 
     26 H26        -3.5969    0.7473    3.5615 H         1 UNK         0.0626 
     27 H27        -1.6736    1.1626    5.0268 H         1 UNK         0.0883 
     28 H28        -2.8256    0.1997    5.8627 H         1 UNK         0.0883 
     29 H29        -0.2108   -0.8413    4.5474 H         1 UNK         0.1467 
     30 H30        -1.3643   -1.8821    5.3781 H         1 UNK         0.1467 
     31 H31         1.6777   -1.4914    6.3210 H         1 UNK         0.3980 
     32 H32        -5.5510   -5.2394    3.0104 H         1 UNK         0.0752 
     33 H33        -6.4644   -4.7472    1.6557 H         1 UNK         0.0752 
     34 H34        -7.8454   -5.8681    3.3588 H         1 UNK         0.0513 
     35 H35        -7.4094   -4.7360    4.5936 H         1 UNK         0.0513 
     36 H36        -9.4480   -4.2656    3.6699 H         1 UNK         0.4242 
@<TRIPOS>BOND
     1    1    2 1    
     2    1    6 1    
     3    1   17 1    
     4    1   18 1    
     5    2    3 1    
     6    2   19 1    
     7    2   20 1    
     8    3    4 1    
     9    3   14 1    
    10    4    5 1    
    11    4   21 1    
    12    4   22 1    
    13    5    6 1    
    14    5   23 1    
    15    5   24 1    
    16    6    7 1    
    17    7    8 1    
    18    7   25 1    
    19    7   26 1    
    20    8    9 1    
    21    8   27 1    
    22    8   28 1    
    23    9   10 1    
    24    9   29 1    
    25    9   30 1    
    26   10   11 2    
    27   10   12 2    
    28   10   13 1    
    29   13   31 1    
    30   14   15 1    
    31   14   32 1    
    32   14   33 1    
    33   15   16 1    
    34   15   34 1    
    35   15   35 1    
    36   16   36 1    
@<TRIPOS>SUBSTRUCTURE
     1 UNK         1 GROUP             0       ****    0 ROOT    
@<TRIPOS>MOLECULE
EPPS
36   36    1
SMALL
USER_CHARGES


@<TRIPOS>ATOM
      1 C1         -5.5254   -0.5390    4.5459 C.3       1 UNK         0.0986 
      2 C2         -6.4056   -1.7864    4.8323 C.3       1 UNK         0.1007 
      3 N3         -6.2140   -2.8187    3.7950 N.3       1 UNK        -0.7113 
      4 C4         -4.7802   -3.1762    3.7631 C.3       1 UNK         0.1007 
      5 C5         -3.8979   -1.9268    3.4864 C.3       1 UNK         0.0986 
      6 N6         -4.0936   -0.8967    4.5277 N.3       1 UNK        -0.7051 
      7 C7         -3.2827    0.3058    4.2858 C.3       1 UNK         0.1131 
      8 C8         -1.7676    0.0588    4.4560 C.3       1 UNK        -0.1197 
      9 C9         -1.3574   -0.4713    5.8518 C.3       1 UNK        -0.2881 
     10 S10         0.4962   -0.7102    5.9763 S.3       1 UNK         1.0110 
     11 O11         1.1692    0.5927    5.9242 O.2       1 UNK        -0.4915 
     12 O12         0.9137   -1.8212    5.1145 O.2       1 UNK        -0.4915 
     13 O13         0.5540   -1.2420    7.5294 O.3       1 UNK        -0.5020 
     14 C14        -7.0897   -3.9742    4.0740 C.3       1 UNK         0.0871 
     15 C15        -7.0939   -5.0969    3.0048 C.3       1 UNK         0.1330 
     16 O16        -7.6678   -4.6706    1.7753 O.3       1 UNK        -0.6627 
     17 H17        -5.7122    0.2055    5.3227 H         1 UNK         0.0691 
     18 H18        -5.8293   -0.0796    3.6019 H         1 UNK         0.0691 
     19 H19        -7.4526   -1.4768    4.8586 H         1 UNK         0.0706 
     20 H20        -6.1770   -2.1789    5.8264 H         1 UNK         0.0706 
     21 H21        -4.5891   -3.9021    2.9718 H         1 UNK         0.0706 
     22 H22        -4.4711   -3.6499    4.6980 H         1 UNK         0.0706 
     23 H23        -2.8562   -2.2494    3.4646 H         1 UNK         0.0691 
     24 H24        -4.1168   -1.5281    2.4928 H         1 UNK         0.0691 
     25 H25        -3.4862    0.7153    3.2930 H         1 UNK         0.0626 
     26 H26        -3.5754    1.0772    5.0023 H         1 UNK         0.0626 
     27 H27        -1.3939   -0.5837    3.6574 H         1 UNK         0.0883 
     28 H28        -1.2626    1.0112    4.2833 H         1 UNK         0.0883 
     29 H29        -1.8066   -1.4372    6.0710 H         1 UNK         0.1467 
     30 H30        -1.6249    0.2167    6.6505 H         1 UNK         0.1467 
     31 H31         0.3157   -2.1893    7.5095 H         1 UNK         0.3980 
     32 H32        -8.1187   -3.7041    4.3218 H         1 UNK         0.0752 
     33 H33        -6.7327   -4.4333    4.9994 H         1 UNK         0.0752 
     34 H34        -6.0949   -5.5027    2.8406 H         1 UNK         0.0513 
     35 H35        -7.6813   -5.9369    3.3804 H         1 UNK         0.0513 
     36 H36        -7.6353   -5.4140    1.1533 H         1 UNK         0.4242 
@<TRIPOS>BOND
     1    1    2 1    
     2    1    6 1    
     3    1   17 1    
     4    1   18 1    
     5    2    3 1    
     6    2   19 1    
     7    2   20 1    
     8    3    4 1    
     9    3   14 1    
    10    4    5 1    
    11    4   21 1    
    12    4   22 1    
    13    5    6 1    
    14    5   23 1    
    15    5   24 1    
    16    6    7 1    
    17    7    8 1    
    18    7   25 1    
    19    7   26 1    
    20    8    9 1    
    21    8   27 1    
    22    8   28 1    
    23    9   10 1    
    24    9   29 1    
    25    9   30 1    
    26   10   11 2    
    27   10   12 2    
    28   10   13 1    
    29   13   31 1    
    30   14   15 1    
    31   14   32 1    
    32   14   33 1    
    33   15   16 1    
    34   15   34 1    
    35   15   35 1    
    36   16   36 1    
@<TRIPOS>SUBSTRUCTURE
     1 UNK         1 GROUP             0       ****    0 ROOT    
@<TRIPOS>MOLECULE
EPPS
36   36    1
SMALL
USER_CHARGES


@<TRIPOS>ATOM
      1 C1         -3.4579   -2.7963    2.4347 C.3       1 UNK         0.0986 
      2 C2         -4.8758   -3.0284    1.8442 C.3       1 UNK         0.1007 
      3 N3         -5.8652   -3.2472    2.9175 N.3       1 UNK        -0.7113 
      4 C4         -5.8488   -2.0592    3.7979 C.3       1 UNK         0.1007 
      5 C5         -4.4300   -1.8205    4.3860 C.3       1 UNK         0.0986 
      6 N6         -3.4383   -1.6090    3.3115 N.3       1 UNK        -0.7051 
      7 C7         -2.0778   -1.3923    3.8252 C.3       1 UNK         0.1131 
      8 C8         -1.9264   -0.0597    4.6011 C.3       1 UNK        -0.1197 
      9 C9         -1.9242   -0.1979    6.1476 C.3       1 UNK        -0.2881 
     10 S10        -0.2753   -0.8021    6.8189 S.3       1 UNK         1.0110 
     11 O11         0.1783   -1.9827    6.0754 O.2       1 UNK        -0.4915 
     12 O12        -0.3111   -0.7943    8.2850 O.2       1 UNK        -0.4915 
     13 O13         0.6486    0.4719    6.3464 O.3       1 UNK        -0.5020 
     14 C14        -7.1933   -3.4984    2.3239 C.3       1 UNK         0.0871 
     15 C15        -8.2659   -3.9475    3.3428 C.3       1 UNK         0.1330 
     16 O16        -7.8651   -5.1616    3.9558 O.3       1 UNK        -0.6627 
     17 H17        -2.7546   -2.6614    1.6103 H         1 UNK         0.0691 
     18 H18        -3.1310   -3.6894    2.9733 H         1 UNK         0.0691 
     19 H19        -4.8419   -3.8998    1.1869 H         1 UNK         0.0706 
     20 H20        -5.1572   -2.1806    1.2143 H         1 UNK         0.0706 
     21 H21        -6.5403   -2.1923    4.6308 H         1 UNK         0.0706 
     22 H22        -6.1824   -1.1671    3.2620 H         1 UNK         0.0706 
     23 H23        -4.4774   -0.9426    5.0315 H         1 UNK         0.0691 
     24 H24        -4.1445   -2.6595    5.0251 H         1 UNK         0.0691 
     25 H25        -1.7875   -2.2389    4.4513 H         1 UNK         0.0626 
     26 H26        -1.3718   -1.3804    2.9913 H         1 UNK         0.0626 
     27 H27        -1.0422    0.4776    4.2530 H         1 UNK         0.0883 
     28 H28        -2.7678    0.5907    4.3528 H         1 UNK         0.0883 
     29 H29        -2.6616   -0.9096    6.5097 H         1 UNK         0.1467 
     30 H30        -2.1109    0.7541    6.6394 H         1 UNK         0.1467 
     31 H31         0.4974    1.1842    6.9974 H         1 UNK         0.3980 
     32 H32        -7.1811   -4.1939    1.4813 H         1 UNK         0.0752 
     33 H33        -7.5476   -2.5701    1.8686 H         1 UNK         0.0752 
     34 H34        -8.4512   -3.1802    4.0955 H         1 UNK         0.0513 
     35 H35        -9.2186   -4.1022    2.8335 H         1 UNK         0.0513 
     36 H36        -6.9316   -5.0351    4.1940 H         1 UNK         0.4242 
@<TRIPOS>BOND
     1    1    2 1    
     2    1    6 1    
     3    1   17 1    
     4    1   18 1    
     5    2    3 1    
     6    2   19 1    
     7    2   20 1    
     8    3    4 1    
     9    3   14 1    
    10    4    5 1    
    11    4   21 1    
    12    4   22 1    
    13    5    6 1    
    14    5   23 1    
    15    5   24 1    
    16    6    7 1    
    17    7    8 1    
    18    7   25 1    
    19    7   26 1    
    20    8    9 1    
    21    8   27 1    
    22    8   28 1    
    23    9   10 1    
    24    9   29 1    
    25    9   30 1    
    26   10   11 2    
    27   10   12 2    
    28   10   13 1    
    29   13   31 1    
    30   14   15 1    
    31   14   32 1    
    32   14   33 1    
    33   15   16 1    
    34   15   34 1    
    35   15   35 1    
    36   16   36 1    
@<TRIPOS>SUBSTRUCTURE
     1 UNK         1 GROUP             0       ****    0 ROOT    
@<TRIPOS>MOLECULE
EPPS
36   36    1
SMALL
USER_CHARGES


@<TRIPOS>ATOM
      1 C1         -3.8544   -2.8540    6.3138 C.3       1 UNK         0.0986 
      2 C2         -5.1077   -3.6114    5.7611 C.3       1 UNK         0.1007 
      3 N3         -5.3663   -3.3981    4.3261 N.3       1 UNK        -0.7113 
      4 C4         -4.1297   -3.6084    3.5484 C.3       1 UNK         0.1007 
      5 C5         -2.8704   -2.8746    4.1205 C.3       1 UNK         0.0986 
      6 N6         -3.0923   -2.0513    5.3316 N.3       1 UNK        -0.7051 
      7 C7         -3.7539   -0.7659    5.0491 C.3       1 UNK         0.1131 
      8 C8         -2.8362    0.2634    4.3487 C.3       1 UNK        -0.1197 
      9 C9         -1.6452    0.8190    5.1786 C.3       1 UNK        -0.2881 
     10 S10        -0.2005   -0.3703    5.3318 S.3       1 UNK         1.0110 
     11 O11         0.9238    0.2984    5.9960 O.2       1 UNK        -0.4915 
     12 O12        -0.0080   -1.1009    4.0746 O.2       1 UNK        -0.4915 
     13 O13        -0.8666   -1.4018    6.4171 O.3       1 UNK        -0.5020 
     14 C14        -6.5133   -4.2055    3.8683 C.3       1 UNK         0.0871 
     15 C15        -6.9772   -3.9620    2.4094 C.3       1 UNK         0.1330 
     16 O16        -7.5377   -2.6675    2.2280 O.3       1 UNK        -0.6627 
     17 H17        -3.1747   -3.5865    6.7542 H         1 UNK         0.0691 
     18 H18        -4.1601   -2.2261    7.1536 H         1 UNK         0.0691 
     19 H19        -5.9835   -3.2920    6.3297 H         1 UNK         0.0706 
     20 H20        -4.9939   -4.6785    5.9659 H         1 UNK         0.0706 
     21 H21        -4.2848   -3.2534    2.5286 H         1 UNK         0.0706 
     22 H22        -3.9151   -4.6762    3.4656 H         1 UNK         0.0706 
     23 H23        -2.1130   -3.6248    4.3569 H         1 UNK         0.0691 
     24 H24        -2.4193   -2.2786    3.3267 H         1 UNK         0.0691 
     25 H25        -4.6675   -0.9033    4.4669 H         1 UNK         0.0626 
     26 H26        -4.0735   -0.3205    5.9940 H         1 UNK         0.0626 
     27 H27        -2.5011   -0.1022    3.3776 H         1 UNK         0.0883 
     28 H28        -3.4738    1.1131    4.0979 H         1 UNK         0.0883 
     29 H29        -1.9290    1.0852    6.1943 H         1 UNK         0.1467 
     30 H30        -1.2246    1.7060    4.7100 H         1 UNK         0.1467 
     31 H31        -1.7244   -1.7047    6.0031 H         1 UNK         0.3980 
     32 H32        -7.3755   -4.1746    4.5381 H         1 UNK         0.0752 
     33 H33        -6.2048   -5.2523    3.9208 H         1 UNK         0.0752 
     34 H34        -6.1689   -4.1329    1.6971 H         1 UNK         0.0513 
     35 H35        -7.7392   -4.7010    2.1551 H         1 UNK         0.0513 
     36 H36        -7.8023   -2.5808    1.2992 H         1 UNK         0.4242 
@<TRIPOS>BOND
     1    1    2 1    
     2    1    6 1    
     3    1   17 1    
     4    1   18 1    
     5    2    3 1    
     6    2   19 1    
     7    2   20 1    
     8    3    4 1    
     9    3   14 1    
    10    4    5 1    
    11    4   21 1    
    12    4   22 1    
    13    5    6 1    
    14    5   23 1    
    15    5   24 1    
    16    6    7 1    
    17    7    8 1    
    18    7   25 1    
    19    7   26 1    
    20    8    9 1    
    21    8   27 1    
    22    8   28 1    
    23    9   10 1    
    24    9   29 1    
    25    9   30 1    
    26   10   11 2    
    27   10   12 2    
    28   10   13 1    
    29   13   31 1    
    30   14   15 1    
    31   14   32 1    
    32   14   33 1    
    33   15   16 1    
    34   15   34 1    
    35   15   35 1    
    36   16   36 1    
@<TRIPOS>SUBSTRUCTURE
     1 UNK         1 GROUP             0       ****    0 ROOT    
@<TRIPOS>MOLECULE
EPPS
36   36    1
SMALL
USER_CHARGES


@<TRIPOS>ATOM
      1 C1         -4.5745   -0.2973    4.0438 C.3       1 UNK         0.0986 
      2 C2         -5.5378   -1.5011    3.7789 C.3       1 UNK         0.1007 
      3 N3         -4.8660   -2.7080    3.2526 N.3       1 UNK        -0.7113 
      4 C4         -3.9978   -2.3387    2.1178 C.3       1 UNK         0.1007 
      5 C5         -3.0340   -1.1424    2.4121 C.3       1 UNK         0.0986 
      6 N6         -3.1542   -0.6042    3.7848 N.3       1 UNK        -0.7051 
      7 C7         -2.3002    0.5699    4.0098 C.3       1 UNK         0.1131 
      8 C8         -0.8293    0.1678    4.2647 C.3       1 UNK        -0.1197 
      9 C9         -0.4672   -0.2543    5.7193 C.3       1 UNK        -0.2881 
     10 S10        -1.5986   -1.5358    6.5114 S.3       1 UNK         1.0110 
     11 O11        -2.8393   -0.8978    6.9628 O.2       1 UNK        -0.4915 
     12 O12        -0.8171   -2.3829    7.4192 O.2       1 UNK        -0.4915 
     13 O13        -1.9447   -2.4226    5.1775 O.3       1 UNK        -0.5020 
     14 C14        -5.7915   -3.7934    2.8743 C.3       1 UNK         0.0871 
     15 C15        -6.6752   -4.3638    4.0130 C.3       1 UNK         0.1330 
     16 O16        -5.9156   -5.0650    4.9896 O.3       1 UNK        -0.6627 
     17 H17        -4.6914    0.0177    5.0829 H         1 UNK         0.0691 
     18 H18        -4.8917    0.5552    3.4383 H         1 UNK         0.0691 
     19 H19        -6.3311   -1.1833    3.0984 H         1 UNK         0.0706 
     20 H20        -6.0296   -1.7465    4.7212 H         1 UNK         0.0706 
     21 H21        -4.6058   -2.0963    1.2429 H         1 UNK         0.0706 
     22 H22        -3.3987   -3.2059    1.8323 H         1 UNK         0.0706 
     23 H23        -2.0125   -1.4772    2.2274 H         1 UNK         0.0691 
     24 H24        -3.2190   -0.3504    1.6825 H         1 UNK         0.0691 
     25 H25        -2.3772    1.2938    3.1946 H         1 UNK         0.0626 
     26 H26        -2.6531    1.0922    4.9026 H         1 UNK         0.0626 
     27 H27        -0.5416   -0.6547    3.6092 H         1 UNK         0.0883 
     28 H28        -0.1882    1.0037    3.9797 H         1 UNK         0.0883 
     29 H29        -0.4575    0.5914    6.4033 H         1 UNK         0.1467 
     30 H30         0.5254   -0.6983    5.7505 H         1 UNK         0.1467 
     31 H31        -2.4944   -1.8183    4.6024 H         1 UNK         0.3980 
     32 H32        -5.3172   -4.6139    2.3313 H         1 UNK         0.0752 
     33 H33        -6.4790   -3.3795    2.1327 H         1 UNK         0.0752 
     34 H34        -7.3981   -5.0588    3.5819 H         1 UNK         0.0513 
     35 H35        -7.2776   -3.5852    4.4828 H         1 UNK         0.0513 
     36 H36        -6.5250   -5.3881    5.6711 H         1 UNK         0.4242 
@<TRIPOS>BOND
     1    1    2 1    
     2    1    6 1    
     3    1   17 1    
     4    1   18 1    
     5    2    3 1    
     6    2   19 1    
     7    2   20 1    
     8    3    4 1    
     9    3   14 1    
    10    4    5 1    
    11    4   21 1    
    12    4   22 1    
    13    5    6 1    
    14    5   23 1    
    15    5   24 1    
    16    6    7 1    
    17    7    8 1    
    18    7   25 1    
    19    7   26 1    
    20    8    9 1    
    21    8   27 1    
    22    8   28 1    
    23    9   10 1    
    24    9   29 1    
    25    9   30 1    
    26   10   11 2    
    27   10   12 2    
    28   10   13 1    
    29   13   31 1    
    30   14   15 1    
    31   14   32 1    
    32   14   33 1    
    33   15   16 1    
    34   15   34 1    
    35   15   35 1    
    36   16   36 1    
@<TRIPOS>SUBSTRUCTURE
     1 UNK         1 GROUP             0       ****    0 ROOT    
@<TRIPOS>MOLECULE
EPPS
36   36    1
SMALL
USER_CHARGES


@<TRIPOS>ATOM
      1 C1         -4.1137   -1.3910    2.7463 C.3       1 UNK         0.0986 
      2 C2         -5.5580   -1.7173    2.2762 C.3       1 UNK         0.1007 
      3 N3         -6.1303   -2.8369    3.0509 N.3       1 UNK        -0.7113 
      4 C4         -6.1214   -2.4562    4.4806 C.3       1 UNK         0.1007 
      5 C5         -4.6811   -2.1280    4.9634 C.3       1 UNK         0.0986 
      6 N6         -4.1063   -1.0208    4.1749 N.3       1 UNK        -0.7051 
      7 C7         -2.7869   -0.5822    4.6524 C.3       1 UNK         0.1131 
      8 C8         -1.6988   -1.6829    4.7351 C.3       1 UNK        -0.1197 
      9 C9         -0.2404   -1.1559    4.7935 C.3       1 UNK        -0.2881 
     10 S10         0.1603   -0.1693    6.3457 S.3       1 UNK         1.0110 
     11 O11        -0.7917    0.9343    6.5112 O.2       1 UNK        -0.4915 
     12 O12         1.6068    0.0615    6.4164 O.2       1 UNK        -0.4915 
     13 O13        -0.2051   -1.3211    7.4590 O.3       1 UNK        -0.5020 
     14 C14        -7.4855   -3.1427    2.5516 C.3       1 UNK         0.0871 
     15 C15        -8.1018   -4.4312    3.1437 C.3       1 UNK         0.1330 
     16 O16        -7.2907   -5.5458    2.8121 O.3       1 UNK        -0.6627 
     17 H17        -3.7210   -0.5668    2.1474 H         1 UNK         0.0691 
     18 H18        -3.4707   -2.2499    2.5470 H         1 UNK         0.0691 
     19 H19        -5.5291   -1.9766    1.2157 H         1 UNK         0.0706 
     20 H20        -6.1826   -0.8238    2.3552 H         1 UNK         0.0706 
     21 H21        -6.5038   -3.2722    5.0951 H         1 UNK         0.0706 
     22 H22        -6.7771   -1.6014    4.6642 H         1 UNK         0.0706 
     23 H23        -4.7112   -1.8543    6.0199 H         1 UNK         0.0691 
     24 H24        -4.0634   -3.0260    4.8943 H         1 UNK         0.0691 
     25 H25        -2.4327    0.2610    4.0554 H         1 UNK         0.0626 
     26 H26        -2.9347   -0.1587    5.6477 H         1 UNK         0.0626 
     27 H27        -1.8684   -2.2431    5.6564 H         1 UNK         0.0883 
     28 H28        -1.8114   -2.4242    3.9442 H         1 UNK         0.0883 
     29 H29        -0.0104   -0.4970    3.9590 H         1 UNK         0.1467 
     30 H30         0.4779   -1.9724    4.7720 H         1 UNK         0.1467 
     31 H31         0.5610   -1.9258    7.4977 H         1 UNK         0.3980 
     32 H32        -7.5635   -3.1724    1.4621 H         1 UNK         0.0752 
     33 H33        -8.1460   -2.3145    2.8207 H         1 UNK         0.0752 
     34 H34        -8.2281   -4.3560    4.2245 H         1 UNK         0.0513 
     35 H35        -9.1026   -4.5840    2.7364 H         1 UNK         0.0513 
     36 H36        -6.3786   -5.2650    2.9945 H         1 UNK         0.4242 
@<TRIPOS>BOND
     1    1    2 1    
     2    1    6 1    
     3    1   17 1    
     4    1   18 1    
     5    2    3 1    
     6    2   19 1    
     7    2   20 1    
     8    3    4 1    
     9    3   14 1    
    10    4    5 1    
    11    4   21 1    
    12    4   22 1    
    13    5    6 1    
    14    5   23 1    
    15    5   24 1    
    16    6    7 1    
    17    7    8 1    
    18    7   25 1    
    19    7   26 1    
    20    8    9 1    
    21    8   27 1    
    22    8   28 1    
    23    9   10 1    
    24    9   29 1    
    25    9   30 1    
    26   10   11 2    
    27   10   12 2    
    28   10   13 1    
    29   13   31 1    
    30   14   15 1    
    31   14   32 1    
    32   14   33 1    
    33   15   16 1    
    34   15   34 1    
    35   15   35 1    
    36   16   36 1    
@<TRIPOS>SUBSTRUCTURE
     1 UNK         1 GROUP             0       ****    0 ROOT    
@<TRIPOS>MOLECULE
EPPS
36   36    1
SMALL
USER_CHARGES


@<TRIPOS>ATOM
      1 C1         -5.4931   -0.6930    4.3634 C.3       1 UNK         0.0986 
      2 C2         -6.3842   -1.9292    4.6643 C.3       1 UNK         0.1007 
      3 N3         -6.1599   -2.9971    3.6703 N.3       1 UNK        -0.7113 
      4 C4         -4.7264   -3.3564    3.6981 C.3       1 UNK         0.1007 
      5 C5         -3.8332   -2.1179    3.4081 C.3       1 UNK         0.0986 
      6 N6         -4.0621   -1.0518    4.4055 N.3       1 UNK        -0.7051 
      7 C7         -3.2413    0.1408    4.1496 C.3       1 UNK         0.1131 
      8 C8         -1.7331   -0.1018    4.3780 C.3       1 UNK        -0.1197 
      9 C9         -1.3707   -0.5886    5.8025 C.3       1 UNK        -0.2881 
     10 S10         0.4779   -0.8193    5.9982 S.3       1 UNK         1.0110 
     11 O11         1.1478    0.4851    5.9668 O.2       1 UNK        -0.4915 
     12 O12         0.9314   -1.9323    5.1564 O.2       1 UNK        -0.4915 
     13 O13         0.4795   -1.3372    7.5572 O.3       1 UNK        -0.5020 
     14 C14        -7.0452   -4.1421    3.9579 C.3       1 UNK         0.0871 
     15 C15        -6.9928   -5.3115    2.9406 C.3       1 UNK         0.1330 
     16 O16        -7.4323   -4.9246    1.6445 O.3       1 UNK        -0.6627 
     17 H17        -5.7045    0.0787    5.1065 H         1 UNK         0.0691 
     18 H18        -5.7646   -0.2675    3.3940 H         1 UNK         0.0691 
     19 H19        -7.4309   -1.6184    4.6458 H         1 UNK         0.0706 
     20 H20        -6.1885   -2.2868    5.6784 H         1 UNK         0.0706 
     21 H21        -4.5116   -4.1089    2.9383 H         1 UNK         0.0706 
     22 H22        -4.4492   -3.7984    4.6581 H         1 UNK         0.0706 
     23 H23        -2.7919   -2.4416    3.4328 H         1 UNK         0.0691 
     24 H24        -4.0180   -1.7541    2.3943 H         1 UNK         0.0691 
     25 H25        -3.4110    0.5160    3.1371 H         1 UNK         0.0626 
     26 H26        -3.5559    0.9367    4.8290 H         1 UNK         0.0626 
     27 H27        -1.3345   -0.7695    3.6127 H         1 UNK         0.0883 
     28 H28        -1.2205    0.8442    4.1922 H         1 UNK         0.0883 
     29 H29        -1.8193   -1.5524    6.0329 H         1 UNK         0.1467 
     30 H30        -1.6739    0.1192    6.5701 H         1 UNK         0.1467 
     31 H31         0.4015   -0.5400    8.1166 H         1 UNK         0.3980 
     32 H32        -8.0849   -3.8625    4.1428 H         1 UNK         0.0752 
     33 H33        -6.7371   -4.5590    4.9202 H         1 UNK         0.0752 
     34 H34        -5.9970   -5.7531    2.8869 H         1 UNK         0.0513 
     35 H35        -7.6420   -6.1135    3.2965 H         1 UNK         0.0513 
     36 H36        -8.3263   -4.5595    1.7274 H         1 UNK         0.4242 
@<TRIPOS>BOND
     1    1    2 1    
     2    1    6 1    
     3    1   17 1    
     4    1   18 1    
     5    2    3 1    
     6    2   19 1    
     7    2   20 1    
     8    3    4 1    
     9    3   14 1    
    10    4    5 1    
    11    4   21 1    
    12    4   22 1    
    13    5    6 1    
    14    5   23 1    
    15    5   24 1    
    16    6    7 1    
    17    7    8 1    
    18    7   25 1    
    19    7   26 1    
    20    8    9 1    
    21    8   27 1    
    22    8   28 1    
    23    9   10 1    
    24    9   29 1    
    25    9   30 1    
    26   10   11 2    
    27   10   12 2    
    28   10   13 1    
    29   13   31 1    
    30   14   15 1    
    31   14   32 1    
    32   14   33 1    
    33   15   16 1    
    34   15   34 1    
    35   15   35 1    
    36   16   36 1    
@<TRIPOS>SUBSTRUCTURE
     1 UNK         1 GROUP             0       ****    0 ROOT    
@<TRIPOS>MOLECULE
EPPS
36   36    1
SMALL
USER_CHARGES


@<TRIPOS>ATOM
      1 C1         -4.2961   -1.5752    5.0083 C.3       1 UNK         0.0986 
      2 C2         -4.4136   -3.0901    5.3405 C.3       1 UNK         0.1007 
      3 N3         -4.5087   -3.9596    4.1503 N.3       1 UNK        -0.7113 
      4 C4         -3.5140   -3.5976    3.1202 C.3       1 UNK         0.1007 
      5 C5         -3.4180   -2.0694    2.8448 C.3       1 UNK         0.0986 
      6 N6         -3.1688   -1.3161    4.0889 N.3       1 UNK        -0.7051 
      7 C7         -3.0330    0.1157    3.7885 C.3       1 UNK         0.1131 
      8 C8         -2.4430    0.9329    4.9610 C.3       1 UNK        -0.1197 
      9 C9         -0.9626    0.6429    5.3375 C.3       1 UNK        -0.2881 
     10 S10        -0.7141   -0.9434    6.3125 S.3       1 UNK         1.0110 
     11 O11        -1.8157   -1.1346    7.2617 O.2       1 UNK        -0.4915 
     12 O12         0.6831   -1.0425    6.7485 O.2       1 UNK        -0.4915 
     13 O13        -0.9192   -2.0066    5.0825 O.3       1 UNK        -0.5020 
     14 C14        -5.8635   -4.3116    3.6802 C.3       1 UNK         0.0871 
     15 C15        -6.6956   -3.1609    3.0689 C.3       1 UNK         0.1330 
     16 O16        -7.9660   -3.6444    2.6607 O.3       1 UNK        -0.6627 
     17 H17        -4.1486   -1.0421    5.9481 H         1 UNK         0.0691 
     18 H18        -5.2308   -1.1891    4.6005 H         1 UNK         0.0691 
     19 H19        -5.2744   -3.2472    5.9935 H         1 UNK         0.0706 
     20 H20        -3.5461   -3.3952    5.9290 H         1 UNK         0.0706 
     21 H21        -3.7324   -4.1163    2.1846 H         1 UNK         0.0706 
     22 H22        -2.5355   -3.9673    3.4332 H         1 UNK         0.0706 
     23 H23        -2.5947   -1.9035    2.1465 H         1 UNK         0.0691 
     24 H24        -4.3112   -1.7049    2.3360 H         1 UNK         0.0691 
     25 H25        -2.3558    0.2364    2.9391 H         1 UNK         0.0626 
     26 H26        -3.9872    0.5438    3.4699 H         1 UNK         0.0626 
     27 H27        -2.4959    1.9796    4.6566 H         1 UNK         0.0883 
     28 H28        -3.0882    0.8865    5.8390 H         1 UNK         0.0883 
     29 H29        -0.5642    1.4263    5.9785 H         1 UNK         0.1467 
     30 H30        -0.3150    0.5686    4.4667 H         1 UNK         0.1467 
     31 H31        -1.8173   -1.7968    4.6964 H         1 UNK         0.3980 
     32 H32        -6.3844   -4.7246    4.5465 H         1 UNK         0.0752 
     33 H33        -5.7272   -5.0981    2.9349 H         1 UNK         0.0752 
     34 H34        -6.8461   -2.3537    3.7849 H         1 UNK         0.0513 
     35 H35        -6.1984   -2.7429    2.1945 H         1 UNK         0.0513 
     36 H36        -8.4964   -3.8192    3.4539 H         1 UNK         0.4242 
@<TRIPOS>BOND
     1    1    2 1    
     2    1    6 1    
     3    1   17 1    
     4    1   18 1    
     5    2    3 1    
     6    2   19 1    
     7    2   20 1    
     8    3    4 1    
     9    3   14 1    
    10    4    5 1    
    11    4   21 1    
    12    4   22 1    
    13    5    6 1    
    14    5   23 1    
    15    5   24 1    
    16    6    7 1    
    17    7    8 1    
    18    7   25 1    
    19    7   26 1    
    20    8    9 1    
    21    8   27 1    
    22    8   28 1    
    23    9   10 1    
    24    9   29 1    
    25    9   30 1    
    26   10   11 2    
    27   10   12 2    
    28   10   13 1    
    29   13   31 1    
    30   14   15 1    
    31   14   32 1    
    32   14   33 1    
    33   15   16 1    
    34   15   34 1    
    35   15   35 1    
    36   16   36 1    
@<TRIPOS>SUBSTRUCTURE
     1 UNK         1 GROUP             0       ****    0 ROOT    
@<TRIPOS>MOLECULE
EPPS
36   36    1
SMALL
USER_CHARGES


@<TRIPOS>ATOM
      1 C1         -4.5725   -2.3070    5.1130 C.3       1 UNK         0.0986 
      2 C2         -4.4854   -3.8446    4.8847 C.3       1 UNK         0.1007 
      3 N3         -4.3678   -4.2273    3.4644 N.3       1 UNK        -0.7113 
      4 C4         -3.3612   -3.4073    2.7598 C.3       1 UNK         0.1007 
      5 C5         -3.4848   -1.8827    3.0340 C.3       1 UNK         0.0986 
      6 N6         -3.4394   -1.6006    4.4831 N.3       1 UNK        -0.7051 
      7 C7         -3.5316   -0.1624    4.7707 C.3       1 UNK         0.1131 
      8 C8         -2.3051    0.6358    4.2660 C.3       1 UNK        -0.1197 
      9 C9         -0.8888    0.0526    4.5441 C.3       1 UNK        -0.2881 
     10 S10        -0.6673   -0.6287    6.2790 S.3       1 UNK         1.0110 
     11 O11        -1.4606    0.1475    7.2382 O.2       1 UNK        -0.4915 
     12 O12         0.7502   -0.9122    6.5285 O.2       1 UNK        -0.4915 
     13 O13        -1.4207   -2.0697    6.0482 O.3       1 UNK        -0.5020 
     14 C14        -5.6250   -4.5184    2.7429 C.3       1 UNK         0.0871 
     15 C15        -6.6994   -3.4123    2.5899 C.3       1 UNK         0.1330 
     16 O16        -7.4419   -3.1992    3.7830 O.3       1 UNK        -0.6627 
     17 H17        -4.5708   -2.1217    6.1893 H         1 UNK         0.0691 
     18 H18        -5.5225   -1.9149    4.7483 H         1 UNK         0.0691 
     19 H19        -5.3599   -4.3236    5.3295 H         1 UNK         0.0706 
     20 H20        -3.6266   -4.2414    5.4295 H         1 UNK         0.0706 
     21 H21        -3.4119   -3.5820    1.6834 H         1 UNK         0.0706 
     22 H22        -2.3663   -3.7432    3.0587 H         1 UNK         0.0706 
     23 H23        -2.6541   -1.3864    2.5300 H         1 UNK         0.0691 
     24 H24        -4.3884   -1.4757    2.5790 H         1 UNK         0.0691 
     25 H25        -4.4374    0.2445    4.3131 H         1 UNK         0.0626 
     26 H26        -3.6429   -0.0013    5.8455 H         1 UNK         0.0626 
     27 H27        -2.4236    0.8575    3.2042 H         1 UNK         0.0883 
     28 H28        -2.3628    1.6217    4.7313 H         1 UNK         0.0883 
     29 H29        -0.1234    0.8177    4.4355 H         1 UNK         0.1467 
     30 H30        -0.6334   -0.7582    3.8660 H         1 UNK         0.1467 
     31 H31        -2.2218   -1.8865    5.4822 H         1 UNK         0.3980 
     32 H32        -6.0862   -5.4557    3.0599 H         1 UNK         0.0752 
     33 H33        -5.3164   -4.7687    1.7258 H         1 UNK         0.0752 
     34 H34        -6.2695   -2.4797    2.2276 H         1 UNK         0.0513 
     35 H35        -7.4038   -3.7193    1.8147 H         1 UNK         0.0513 
     36 H36        -8.1394   -2.5532    3.5935 H         1 UNK         0.4242 
@<TRIPOS>BOND
     1    1    2 1    
     2    1    6 1    
     3    1   17 1    
     4    1   18 1    
     5    2    3 1    
     6    2   19 1    
     7    2   20 1    
     8    3    4 1    
     9    3   14 1    
    10    4    5 1    
    11    4   21 1    
    12    4   22 1    
    13    5    6 1    
    14    5   23 1    
    15    5   24 1    
    16    6    7 1    
    17    7    8 1    
    18    7   25 1    
    19    7   26 1    
    20    8    9 1    
    21    8   27 1    
    22    8   28 1    
    23    9   10 1    
    24    9   29 1    
    25    9   30 1    
    26   10   11 2    
    27   10   12 2    
    28   10   13 1    
    29   13   31 1    
    30   14   15 1    
    31   14   32 1    
    32   14   33 1    
    33   15   16 1    
    34   15   34 1    
    35   15   35 1    
    36   16   36 1    
@<TRIPOS>SUBSTRUCTURE
     1 UNK         1 GROUP             0       ****    0 ROOT    
@<TRIPOS>MOLECULE
EPPS
36   36    1
SMALL
USER_CHARGES


@<TRIPOS>ATOM
      1 C1         -3.4637   -1.3654    2.4120 C.3       1 UNK         0.0986 
      2 C2         -4.7815   -2.2083    2.3886 C.3       1 UNK         0.1007 
      3 N3         -5.6139   -2.1512    3.6095 N.3       1 UNK        -0.7113 
      4 C4         -5.7024   -0.7551    4.0779 C.3       1 UNK         0.1007 
      5 C5         -4.3439    0.0158    4.1771 C.3       1 UNK         0.0986 
      6 N6         -3.1530   -0.7296    3.7086 N.3       1 UNK        -0.7051 
      7 C7         -1.9863    0.1587    3.5645 C.3       1 UNK         0.1131 
      8 C8         -1.3937    0.6552    4.9056 C.3       1 UNK        -0.1197 
      9 C9         -0.5214   -0.3632    5.6897 C.3       1 UNK        -0.2881 
     10 S10        -1.4801   -1.8107    6.3964 S.3       1 UNK         1.0110 
     11 O11        -2.7375   -1.3470    6.9916 O.2       1 UNK        -0.4915 
     12 O12        -0.5713   -2.6922    7.1371 O.2       1 UNK        -0.4915 
     13 O13        -1.8351   -2.5483    4.9780 O.3       1 UNK        -0.5020 
     14 C14        -5.2250   -3.0616    4.7064 C.3       1 UNK         0.0871 
     15 C15        -5.2136   -4.5767    4.3802 C.3       1 UNK         0.1330 
     16 O16        -6.5141   -5.0807    4.1020 O.3       1 UNK        -0.6627 
     17 H17        -3.5231   -0.6067    1.6274 H         1 UNK         0.0691 
     18 H18        -2.6349   -2.0167    2.1260 H         1 UNK         0.0691 
     19 H19        -4.5430   -3.2375    2.1228 H         1 UNK         0.0706 
     20 H20        -5.3957   -1.8558    1.5577 H         1 UNK         0.0706 
     21 H21        -6.2089   -0.7151    5.0447 H         1 UNK         0.0706 
     22 H22        -6.3625   -0.2113    3.3992 H         1 UNK         0.0706 
     23 H23        -4.4387    0.9585    3.6328 H         1 UNK         0.0691 
     24 H24        -4.2030    0.2931    5.2226 H         1 UNK         0.0691 
     25 H25        -1.1973   -0.3985    3.0530 H         1 UNK         0.0626 
     26 H26        -2.2104    1.0078    2.9134 H         1 UNK         0.0626 
     27 H27        -0.7657    1.5188    4.6796 H         1 UNK         0.0883 
     28 H28        -2.1753    1.0395    5.5614 H         1 UNK         0.0883 
     29 H29        -0.0479    0.1060    6.5493 H         1 UNK         0.1467 
     30 H30         0.2663   -0.7944    5.0759 H         1 UNK         0.1467 
     31 H31        -2.3897   -1.8882    4.4731 H         1 UNK         0.3980 
     32 H32        -5.7793   -2.8963    5.6328 H         1 UNK         0.0752 
     33 H33        -4.2090   -2.8049    4.9954 H         1 UNK         0.0752 
     34 H34        -4.5258   -4.8147    3.5684 H         1 UNK         0.0513 
     35 H35        -4.8205   -5.1154    5.2443 H         1 UNK         0.0513 
     36 H36        -6.4360   -6.0275    3.9070 H         1 UNK         0.4242 
@<TRIPOS>BOND
     1    1    2 1    
     2    1    6 1    
     3    1   17 1    
     4    1   18 1    
     5    2    3 1    
     6    2   19 1    
     7    2   20 1    
     8    3    4 1    
     9    3   14 1    
    10    4    5 1    
    11    4   21 1    
    12    4   22 1    
    13    5    6 1    
    14    5   23 1    
    15    5   24 1    
    16    6    7 1    
    17    7    8 1    
    18    7   25 1    
    19    7   26 1    
    20    8    9 1    
    21    8   27 1    
    22    8   28 1    
    23    9   10 1    
    24    9   29 1    
    25    9   30 1    
    26   10   11 2    
    27   10   12 2    
    28   10   13 1    
    29   13   31 1    
    30   14   15 1    
    31   14   32 1    
    32   14   33 1    
    33   15   16 1    
    34   15   34 1    
    35   15   35 1    
    36   16   36 1    
@<TRIPOS>SUBSTRUCTURE
     1 UNK         1 GROUP             0       ****    0 ROOT    
@<TRIPOS>MOLECULE
EPPS
36   36    1
SMALL
USER_CHARGES


@<TRIPOS>ATOM
      1 C1         -4.6631   -1.8195    4.8273 C.3       1 UNK         0.0986 
      2 C2         -4.9850   -3.2686    5.2960 C.3       1 UNK         0.1007 
      3 N3         -4.7477   -4.2941    4.2618 N.3       1 UNK        -0.7113 
      4 C4         -3.4445   -4.1036    3.5931 C.3       1 UNK         0.1007 
      5 C5         -3.1659   -2.6368    3.1615 C.3       1 UNK         0.0986 
      6 N6         -3.2840   -1.7142    4.3074 N.3       1 UNK        -0.7051 
      7 C7         -2.9571   -0.3472    3.8782 C.3       1 UNK         0.1131 
      8 C8         -2.9256    0.6650    5.0491 C.3       1 UNK        -0.1197 
      9 C9         -2.1896    0.2484    6.3560 C.3       1 UNK        -0.2881 
     10 S10        -0.5425   -0.6044    6.0697 S.3       1 UNK         1.0110 
     11 O11         0.1876   -0.7220    7.3367 O.2       1 UNK        -0.4915 
     12 O12         0.1102   -0.0664    4.8713 O.2       1 UNK        -0.4915 
     13 O13        -1.1267   -2.0947    5.7020 O.3       1 UNK        -0.5020 
     14 C14        -5.8968   -4.6617    3.4072 C.3       1 UNK         0.0871 
     15 C15        -6.5628   -3.5893    2.5088 C.3       1 UNK         0.1330 
     16 O16        -7.3992   -2.7026    3.2397 O.3       1 UNK        -0.6627 
     17 H17        -4.7948   -1.1560    5.6831 H         1 UNK         0.0691 
     18 H18        -5.3824   -1.4825    4.0806 H         1 UNK         0.0691 
     19 H19        -6.0216   -3.3137    5.6361 H         1 UNK         0.0706 
     20 H20        -4.3796   -3.5051    6.1731 H         1 UNK         0.0706 
     21 H21        -3.3647   -4.7541    2.7201 H         1 UNK         0.0706 
     22 H22        -2.6536   -4.4330    4.2699 H         1 UNK         0.0706 
     23 H23        -2.1533   -2.5886    2.7547 H         1 UNK         0.0691 
     24 H24        -3.8243   -2.3413    2.3436 H         1 UNK         0.0691 
     25 H25        -1.9895   -0.3347    3.3712 H         1 UNK         0.0626 
     26 H26        -3.6869   -0.0130    3.1358 H         1 UNK         0.0626 
     27 H27        -2.4494    1.5694    4.6656 H         1 UNK         0.0883 
     28 H28        -3.9405    0.9972    5.2733 H         1 UNK         0.0883 
     29 H29        -2.7799   -0.4311    6.9662 H         1 UNK         0.1467 
     30 H30        -1.9612    1.1173    6.9691 H         1 UNK         0.1467 
     31 H31        -1.9325   -1.9531    5.1307 H         1 UNK         0.3980 
     32 H32        -6.6560   -5.2336    3.9440 H         1 UNK         0.0752 
     33 H33        -5.5090   -5.4178    2.7215 H         1 UNK         0.0752 
     34 H34        -5.8268   -3.0380    1.9254 H         1 UNK         0.0513 
     35 H35        -7.1870   -4.0960    1.7704 H         1 UNK         0.0513 
     36 H36        -7.8375   -2.1114    2.6087 H         1 UNK         0.4242 
@<TRIPOS>BOND
     1    1    2 1    
     2    1    6 1    
     3    1   17 1    
     4    1   18 1    
     5    2    3 1    
     6    2   19 1    
     7    2   20 1    
     8    3    4 1    
     9    3   14 1    
    10    4    5 1    
    11    4   21 1    
    12    4   22 1    
    13    5    6 1    
    14    5   23 1    
    15    5   24 1    
    16    6    7 1    
    17    7    8 1    
    18    7   25 1    
    19    7   26 1    
    20    8    9 1    
    21    8   27 1    
    22    8   28 1    
    23    9   10 1    
    24    9   29 1    
    25    9   30 1    
    26   10   11 2    
    27   10   12 2    
    28   10   13 1    
    29   13   31 1    
    30   14   15 1    
    31   14   32 1    
    32   14   33 1    
    33   15   16 1    
    34   15   34 1    
    35   15   35 1    
    36   16   36 1    
@<TRIPOS>SUBSTRUCTURE
     1 UNK         1 GROUP             0       ****    0 ROOT    
@<TRIPOS>MOLECULE
EPPS
36   36    1
SMALL
USER_CHARGES


@<TRIPOS>ATOM
      1 C1         -4.1195   -0.2004    3.2521 C.3       1 UNK         0.0986 
      2 C2         -5.3744   -1.1317    3.1833 C.3       1 UNK         0.1007 
      3 N3         -5.0814   -2.5577    3.4260 N.3       1 UNK        -0.7113 
      4 C4         -3.9570   -2.9880    2.5685 C.3       1 UNK         0.1007 
      5 C5         -2.7150   -2.0382    2.6191 C.3       1 UNK         0.0986 
      6 N6         -2.8635   -0.9160    3.5663 N.3       1 UNK        -0.7051 
      7 C7         -1.6885   -0.0345    3.5460 C.3       1 UNK         0.1131 
      8 C8         -1.5741    0.7962    4.8449 C.3       1 UNK        -0.1197 
      9 C9         -0.9068    0.0922    6.0632 C.3       1 UNK        -0.2881 
     10 S10        -1.5637   -1.6222    6.4865 S.3       1 UNK         1.0110 
     11 O11        -1.4897   -1.8291    7.9371 O.2       1 UNK        -0.4915 
     12 O12        -1.0106   -2.6137    5.5585 O.2       1 UNK        -0.4915 
     13 O13        -3.1386   -1.3906    6.0966 O.3       1 UNK        -0.5020 
     14 C14        -6.2974   -3.3787    3.2760 C.3       1 UNK         0.0871 
     15 C15        -6.1432   -4.8871    3.6007 C.3       1 UNK         0.1330 
     16 O16        -5.8145   -5.1197    4.9644 O.3       1 UNK        -0.6627 
     17 H17        -4.3105    0.5706    3.9996 H         1 UNK         0.0691 
     18 H18        -4.0197    0.3307    2.3024 H         1 UNK         0.0691 
     19 H19        -5.8545   -1.0070    2.2098 H         1 UNK         0.0706 
     20 H20        -6.1033   -0.7881    3.9203 H         1 UNK         0.0706 
     21 H21        -4.2893   -3.0901    1.5329 H         1 UNK         0.0706 
     22 H22        -3.6294   -3.9813    2.8791 H         1 UNK         0.0706 
     23 H23        -1.8385   -2.6286    2.8943 H         1 UNK         0.0691 
     24 H24        -2.5132   -1.6584    1.6145 H         1 UNK         0.0691 
     25 H25        -0.7897   -0.6524    3.4758 H         1 UNK         0.0626 
     26 H26        -1.6747    0.6083    2.6623 H         1 UNK         0.0626 
     27 H27        -1.0138    1.7064    4.6246 H         1 UNK         0.0883 
     28 H28        -2.5596    1.1335    5.1675 H         1 UNK         0.0883 
     29 H29        -1.0510    0.6795    6.9675 H         1 UNK         0.1467 
     30 H30         0.1661   -0.0289    5.9319 H         1 UNK         0.1467 
     31 H31        -3.1438   -1.2786    5.1038 H         1 UNK         0.3980 
     32 H32        -6.5960   -3.3217    2.2263 H         1 UNK         0.0752 
     33 H33        -7.1703   -2.9751    3.7938 H         1 UNK         0.0752 
     34 H34        -7.0885   -5.3889    3.3863 H         1 UNK         0.0513 
     35 H35        -5.4113   -5.3639    2.9475 H         1 UNK         0.0513 
     36 H36        -6.4806   -4.6784    5.5125 H         1 UNK         0.4242 
@<TRIPOS>BOND
     1    1    2 1    
     2    1    6 1    
     3    1   17 1    
     4    1   18 1    
     5    2    3 1    
     6    2   19 1    
     7    2   20 1    
     8    3    4 1    
     9    3   14 1    
    10    4    5 1    
    11    4   21 1    
    12    4   22 1    
    13    5    6 1    
    14    5   23 1    
    15    5   24 1    
    16    6    7 1    
    17    7    8 1    
    18    7   25 1    
    19    7   26 1    
    20    8    9 1    
    21    8   27 1    
    22    8   28 1    
    23    9   10 1    
    24    9   29 1    
    25    9   30 1    
    26   10   11 2    
    27   10   12 2    
    28   10   13 1    
    29   13   31 1    
    30   14   15 1    
    31   14   32 1    
    32   14   33 1    
    33   15   16 1    
    34   15   34 1    
    35   15   35 1    
    36   16   36 1    
@<TRIPOS>SUBSTRUCTURE
     1 UNK         1 GROUP             0       ****    0 ROOT    
@<TRIPOS>MOLECULE
EPPS
36   36    1
SMALL
USER_CHARGES


@<TRIPOS>ATOM
      1 C1         -4.1784   -0.4210    3.6867 C.3       1 UNK         0.0986 
      2 C2         -5.2817   -1.5257    3.5851 C.3       1 UNK         0.1007 
      3 N3         -4.7526   -2.9053    3.5115 N.3       1 UNK        -0.7113 
      4 C4         -3.7099   -2.9727    2.4676 C.3       1 UNK         0.1007 
      5 C5         -2.6091   -1.8684    2.5900 C.3       1 UNK         0.0986 
      6 N6         -2.8023   -0.9576    3.7362 N.3       1 UNK        -0.7051 
      7 C7         -1.7690    0.0846    3.7573 C.3       1 UNK         0.1131 
      8 C8         -1.8191    0.9572    5.0343 C.3       1 UNK        -0.1197 
      9 C9         -1.9919    0.2417    6.4067 C.3       1 UNK        -0.2881 
     10 S10        -0.9732   -1.3239    6.5967 S.3       1 UNK         1.0110 
     11 O11        -0.9789   -1.7551    7.9990 O.2       1 UNK        -0.4915 
     12 O12         0.2845   -1.2117    5.8502 O.2       1 UNK        -0.4915 
     13 O13        -1.9649   -2.3395    5.7706 O.3       1 UNK        -0.5020 
     14 C14        -5.7863   -3.9331    3.2913 C.3       1 UNK         0.0871 
     15 C15        -6.7518   -4.0632    4.4927 C.3       1 UNK         0.1330 
     16 O16        -7.6792   -5.1150    4.2691 O.3       1 UNK        -0.6627 
     17 H17        -4.3743    0.1760    4.5787 H         1 UNK         0.0691 
     18 H18        -4.2819    0.2662    2.8437 H         1 UNK         0.0691 
     19 H19        -5.9163   -1.3193    2.7202 H         1 UNK         0.0706 
     20 H20        -5.9267   -1.4287    4.4593 H         1 UNK         0.0706 
     21 H21        -4.1659   -2.9103    1.4766 H         1 UNK         0.0706 
     22 H22        -3.2245   -3.9500    2.5099 H         1 UNK         0.0706 
     23 H23        -1.6356   -2.3559    2.6764 H         1 UNK         0.0691 
     24 H24        -2.5728   -1.2985    1.6582 H         1 UNK         0.0691 
     25 H25        -0.7787   -0.3678    3.6700 H         1 UNK         0.0626 
     26 H26        -1.8834    0.7254    2.8791 H         1 UNK         0.0626 
     27 H27        -0.8845    1.5207    5.0617 H         1 UNK         0.0883 
     28 H28        -2.5740    1.7361    4.9149 H         1 UNK         0.0883 
     29 H29        -3.0231   -0.0454    6.5982 H         1 UNK         0.1467 
     30 H30        -1.6805    0.8879    7.2243 H         1 UNK         0.1467 
     31 H31        -2.2845   -1.8444    4.9641 H         1 UNK         0.3980 
     32 H32        -5.2641   -4.8845    3.1649 H         1 UNK         0.0752 
     33 H33        -6.3350   -3.6658    2.3851 H         1 UNK         0.0752 
     34 H34        -6.1911   -4.2703    5.4064 H         1 UNK         0.0513 
     35 H35        -7.3078   -3.1403    4.6629 H         1 UNK         0.0513 
     36 H36        -8.3142   -4.8232    3.5963 H         1 UNK         0.4242 
@<TRIPOS>BOND
     1    1    2 1    
     2    1    6 1    
     3    1   17 1    
     4    1   18 1    
     5    2    3 1    
     6    2   19 1    
     7    2   20 1    
     8    3    4 1    
     9    3   14 1    
    10    4    5 1    
    11    4   21 1    
    12    4   22 1    
    13    5    6 1    
    14    5   23 1    
    15    5   24 1    
    16    6    7 1    
    17    7    8 1    
    18    7   25 1    
    19    7   26 1    
    20    8    9 1    
    21    8   27 1    
    22    8   28 1    
    23    9   10 1    
    24    9   29 1    
    25    9   30 1    
    26   10   11 2    
    27   10   12 2    
    28   10   13 1    
    29   13   31 1    
    30   14   15 1    
    31   14   32 1    
    32   14   33 1    
    33   15   16 1    
    34   15   34 1    
    35   15   35 1    
    36   16   36 1    
@<TRIPOS>SUBSTRUCTURE
     1 UNK         1 GROUP             0       ****    0 ROOT    
@<TRIPOS>MOLECULE
EPPS
36   36    1
SMALL
USER_CHARGES


@<TRIPOS>ATOM
      1 C1         -5.3591   -0.4781    4.0759 C.3       1 UNK         0.0986 
      2 C2         -6.4117   -1.5562    4.4532 C.3       1 UNK         0.1007 
      3 N3         -6.1734   -2.8102    3.7119 N.3       1 UNK        -0.7113 
      4 C4         -4.8044   -3.2733    4.0218 C.3       1 UNK         0.1007 
      5 C5         -3.7508   -2.1912    3.6544 C.3       1 UNK         0.0986 
      6 N6         -3.9942   -0.9380    4.3985 N.3       1 UNK        -0.7051 
      7 C7         -3.0220    0.1126    4.0626 C.3       1 UNK         0.1131 
      8 C8         -1.5924   -0.2044    4.5546 C.3       1 UNK        -0.1197 
      9 C9         -1.4818   -0.4453    6.0818 C.3       1 UNK        -0.2881 
     10 S10         0.2870   -0.7272    6.6384 S.3       1 UNK         1.0110 
     11 O11         0.3095   -0.9955    8.0807 O.2       1 UNK        -0.4915 
     12 O12         1.1717    0.2750    6.0346 O.2       1 UNK        -0.4915 
     13 O13         0.5544   -2.1510    5.8636 O.3       1 UNK        -0.5020 
     14 C14        -7.2087   -3.8020    4.0609 C.3       1 UNK         0.0871 
     15 C15        -7.1470   -5.1461    3.2897 C.3       1 UNK         0.1330 
     16 O16        -7.3627   -4.9823    1.8936 O.3       1 UNK        -0.6627 
     17 H17        -5.5831    0.4366    4.6287 H         1 UNK         0.0691 
     18 H18        -5.4502   -0.2259    3.0164 H         1 UNK         0.0691 
     19 H19        -7.4064   -1.1703    4.2203 H         1 UNK         0.0706 
     20 H20        -6.3942   -1.7268    5.5327 H         1 UNK         0.0706 
     21 H21        -4.5725   -4.1734    3.4509 H         1 UNK         0.0706 
     22 H22        -4.7085   -3.5429    5.0764 H         1 UNK         0.0706 
     23 H23        -2.7639   -2.5881    3.8951 H         1 UNK         0.0691 
     24 H24        -3.7570   -2.0157    2.5758 H         1 UNK         0.0691 
     25 H25        -3.0140    0.2995    2.9857 H         1 UNK         0.0626 
     26 H26        -3.3361    1.0469    4.5342 H         1 UNK         0.0626 
     27 H27        -1.1712   -1.0304    3.9809 H         1 UNK         0.0883 
     28 H28        -0.9649    0.6485    4.2885 H         1 UNK         0.0883 
     29 H29        -2.0395   -1.3237    6.3991 H         1 UNK         0.1467 
     30 H30        -1.8374    0.4073    6.6555 H         1 UNK         0.1467 
     31 H31         0.8383   -1.9256    4.9572 H         1 UNK         0.3980 
     32 H32        -8.2272   -3.4080    4.0314 H         1 UNK         0.0752 
     33 H33        -7.0807   -4.0491    5.1179 H         1 UNK         0.0752 
     34 H34        -6.2071   -5.6695    3.4691 H         1 UNK         0.0513 
     35 H35        -7.9217   -5.8086    3.6799 H         1 UNK         0.0513 
     36 H36        -8.2150   -4.5373    1.7718 H         1 UNK         0.4242 
@<TRIPOS>BOND
     1    1    2 1    
     2    1    6 1    
     3    1   17 1    
     4    1   18 1    
     5    2    3 1    
     6    2   19 1    
     7    2   20 1    
     8    3    4 1    
     9    3   14 1    
    10    4    5 1    
    11    4   21 1    
    12    4   22 1    
    13    5    6 1    
    14    5   23 1    
    15    5   24 1    
    16    6    7 1    
    17    7    8 1    
    18    7   25 1    
    19    7   26 1    
    20    8    9 1    
    21    8   27 1    
    22    8   28 1    
    23    9   10 1    
    24    9   29 1    
    25    9   30 1    
    26   10   11 2    
    27   10   12 2    
    28   10   13 1    
    29   13   31 1    
    30   14   15 1    
    31   14   32 1    
    32   14   33 1    
    33   15   16 1    
    34   15   34 1    
    35   15   35 1    
    36   16   36 1    
@<TRIPOS>SUBSTRUCTURE
     1 UNK         1 GROUP             0       ****    0 ROOT    
@<TRIPOS>MOLECULE
EPPS
36   36    1
SMALL
USER_CHARGES


@<TRIPOS>ATOM
      1 C1         -4.7571   -0.8321    4.3217 C.3       1 UNK         0.0986 
      2 C2         -5.8902   -1.7867    4.7894 C.3       1 UNK         0.1007 
      3 N3         -6.0437   -2.9255    3.8630 N.3       1 UNK        -0.7113 
      4 C4         -4.7490   -3.6345    3.7892 C.3       1 UNK         0.1007 
      5 C5         -3.6166   -2.6773    3.3239 C.3       1 UNK         0.0986 
      6 N6         -3.4634   -1.5429    4.2553 N.3       1 UNK        -0.7051 
      7 C7         -2.3667   -0.6725    3.8071 C.3       1 UNK         0.1131 
      8 C8         -2.0091    0.4281    4.8347 C.3       1 UNK        -0.1197 
      9 C9         -1.6888   -0.0507    6.2784 C.3       1 UNK        -0.2881 
     10 S10        -0.0401   -0.9393    6.4495 S.3       1 UNK         1.0110 
     11 O11         0.1850   -1.2727    7.8605 O.2       1 UNK        -0.4915 
     12 O12         0.1289   -1.9458    5.3970 O.2       1 UNK        -0.4915 
     13 O13         0.9437    0.3237    6.0805 O.3       1 UNK        -0.5020 
     14 C14        -7.1496   -3.7920    4.3169 C.3       1 UNK         0.0871 
     15 C15        -7.5195   -4.9685    3.3773 C.3       1 UNK         0.1330 
     16 O16        -8.0744   -4.5230    2.1459 O.3       1 UNK        -0.6627 
     17 H17        -4.6987   -0.0052    5.0307 H         1 UNK         0.0691 
     18 H18        -5.0146   -0.3915    3.3554 H         1 UNK         0.0691 
     19 H19        -6.8237   -1.2222    4.8402 H         1 UNK         0.0706 
     20 H20        -5.6851   -2.1312    5.8062 H         1 UNK         0.0706 
     21 H21        -4.8071   -4.4562    3.0746 H         1 UNK         0.0706 
     22 H22        -4.4874   -4.0800    4.7521 H         1 UNK         0.0706 
     23 H23        -2.6831   -3.2414    3.2712 H         1 UNK         0.0691 
     24 H24        -3.8212   -2.3282    2.3086 H         1 UNK         0.0691 
     25 H25        -2.6201   -0.2112    2.8491 H         1 UNK         0.0626 
     26 H26        -1.4793   -1.2794    3.6203 H         1 UNK         0.0626 
     27 H27        -1.1566    0.9863    4.4455 H         1 UNK         0.0883 
     28 H28        -2.8038    1.1750    4.8507 H         1 UNK         0.0883 
     29 H29        -2.4352   -0.7502    6.6479 H         1 UNK         0.1467 
     30 H30        -1.6418    0.7818    6.9765 H         1 UNK         0.1467 
     31 H31         1.0260    0.3385    5.1079 H         1 UNK         0.3980 
     32 H32        -8.0562   -3.2494    4.5945 H         1 UNK         0.0752 
     33 H33        -6.8394   -4.2412    5.2637 H         1 UNK         0.0752 
     34 H34        -6.6678   -5.6257    3.1978 H         1 UNK         0.0513 
     35 H35        -8.2601   -5.5964    3.8761 H         1 UNK         0.0513 
     36 H36        -8.2779   -5.3031    1.6068 H         1 UNK         0.4242 
@<TRIPOS>BOND
     1    1    2 1    
     2    1    6 1    
     3    1   17 1    
     4    1   18 1    
     5    2    3 1    
     6    2   19 1    
     7    2   20 1    
     8    3    4 1    
     9    3   14 1    
    10    4    5 1    
    11    4   21 1    
    12    4   22 1    
    13    5    6 1    
    14    5   23 1    
    15    5   24 1    
    16    6    7 1    
    17    7    8 1    
    18    7   25 1    
    19    7   26 1    
    20    8    9 1    
    21    8   27 1    
    22    8   28 1    
    23    9   10 1    
    24    9   29 1    
    25    9   30 1    
    26   10   11 2    
    27   10   12 2    
    28   10   13 1    
    29   13   31 1    
    30   14   15 1    
    31   14   32 1    
    32   14   33 1    
    33   15   16 1    
    34   15   34 1    
    35   15   35 1    
    36   16   36 1    
@<TRIPOS>SUBSTRUCTURE
     1 UNK         1 GROUP             0       ****    0 ROOT    
@<TRIPOS>MOLECULE
EPPS
36   36    1
SMALL
USER_CHARGES


@<TRIPOS>ATOM
      1 C1         -4.6127   -0.5225    4.5782 C.3       1 UNK         0.0986 
      2 C2         -5.5027   -1.7871    4.8195 C.3       1 UNK         0.1007 
      3 N3         -4.8197   -3.0580    4.5086 N.3       1 UNK        -0.7113 
      4 C4         -4.2187   -2.9930    3.1631 C.3       1 UNK         0.1007 
      5 C5         -3.3399   -1.7197    2.9297 C.3       1 UNK         0.0986 
      6 N6         -3.2440   -0.8352    4.1089 N.3       1 UNK        -0.7051 
      7 C7         -2.4542    0.3685    3.8168 C.3       1 UNK         0.1131 
      8 C8         -1.8973    1.0146    5.1064 C.3       1 UNK        -0.1197 
      9 C9         -0.5819    0.4061    5.6762 C.3       1 UNK        -0.2881 
     10 S10        -0.5557   -1.4679    5.8692 S.3       1 UNK         1.0110 
     11 O11         0.2643   -1.8282    7.0313 O.2       1 UNK        -0.4915 
     12 O12        -0.3303   -2.1026    4.5667 O.2       1 UNK        -0.4915 
     13 O13        -2.1260   -1.7003    6.2770 O.3       1 UNK        -0.5020 
     14 C14        -5.6254   -4.2717    4.7456 C.3       1 UNK         0.0871 
     15 C15        -6.9998   -4.4102    4.0350 C.3       1 UNK         0.1330 
     16 O16        -6.8905   -4.6502    2.6385 O.3       1 UNK        -0.6627 
     17 H17        -4.5712    0.0443    5.5090 H         1 UNK         0.0691 
     18 H18        -5.1128    0.1311    3.8595 H         1 UNK         0.0691 
     19 H19        -6.4089   -1.6874    4.2195 H         1 UNK         0.0706 
     20 H20        -5.8297   -1.7989    5.8611 H         1 UNK         0.0706 
     21 H21        -4.9963   -3.0158    2.3986 H         1 UNK         0.0706 
     22 H22        -3.6087   -3.8832    2.9983 H         1 UNK         0.0706 
     23 H23        -2.3378   -2.0406    2.6379 H         1 UNK         0.0691 
     24 H24        -3.7341   -1.1646    2.0751 H         1 UNK         0.0691 
     25 H25        -1.5978    0.0830    3.2008 H         1 UNK         0.0626 
     26 H26        -3.0173    1.0924    3.2224 H         1 UNK         0.0626 
     27 H27        -1.7308    2.0763    4.9165 H         1 UNK         0.0883 
     28 H28        -2.6417    0.9759    5.9022 H         1 UNK         0.0883 
     29 H29        -0.3843    0.7940    6.6732 H         1 UNK         0.1467 
     30 H30         0.2836    0.6502    5.0643 H         1 UNK         0.1467 
     31 H31        -2.6427   -1.4634    5.4553 H         1 UNK         0.3980 
     32 H32        -5.8537   -4.2407    5.8129 H         1 UNK         0.0752 
     33 H33        -5.0526   -5.1986    4.6788 H         1 UNK         0.0752 
     34 H34        -7.5321   -5.2546    4.4767 H         1 UNK         0.0513 
     35 H35        -7.6393   -3.5483    4.2293 H         1 UNK         0.0513 
     36 H36        -7.7852   -4.7553    2.2794 H         1 UNK         0.4242 
@<TRIPOS>BOND
     1    1    2 1    
     2    1    6 1    
     3    1   17 1    
     4    1   18 1    
     5    2    3 1    
     6    2   19 1    
     7    2   20 1    
     8    3    4 1    
     9    3   14 1    
    10    4    5 1    
    11    4   21 1    
    12    4   22 1    
    13    5    6 1    
    14    5   23 1    
    15    5   24 1    
    16    6    7 1    
    17    7    8 1    
    18    7   25 1    
    19    7   26 1    
    20    8    9 1    
    21    8   27 1    
    22    8   28 1    
    23    9   10 1    
    24    9   29 1    
    25    9   30 1    
    26   10   11 2    
    27   10   12 2    
    28   10   13 1    
    29   13   31 1    
    30   14   15 1    
    31   14   32 1    
    32   14   33 1    
    33   15   16 1    
    34   15   34 1    
    35   15   35 1    
    36   16   36 1    
@<TRIPOS>SUBSTRUCTURE
     1 UNK         1 GROUP             0       ****    0 ROOT    
@<TRIPOS>MOLECULE
EPPS
36   36    1
SMALL
USER_CHARGES


@<TRIPOS>ATOM
      1 C1         -4.6271   -0.8124    4.8017 C.3       1 UNK         0.0986 
      2 C2         -5.3280   -2.2110    4.7776 C.3       1 UNK         0.1007 
      3 N3         -4.5380   -3.2564    4.1002 N.3       1 UNK        -0.7113 
      4 C4         -4.0979   -2.7785    2.7749 C.3       1 UNK         0.1007 
      5 C5         -3.4021   -1.3772    2.8141 C.3       1 UNK         0.0986 
      6 N6         -3.2900   -0.8029    4.1739 N.3       1 UNK        -0.7051 
      7 C7         -2.7031    0.5438    4.1760 C.3       1 UNK         0.1131 
      8 C8         -1.1641    0.4977    4.0350 C.3       1 UNK        -0.1197 
      9 C9         -0.3540    0.2466    5.3412 C.3       1 UNK        -0.2881 
     10 S10        -0.9175   -1.2106    6.3943 S.3       1 UNK         1.0110 
     11 O11        -2.1128   -0.8430    7.1598 O.2       1 UNK        -0.4915 
     12 O12         0.2442   -1.8111    7.0594 O.2       1 UNK        -0.4915 
     13 O13        -1.3817   -2.2241    5.1927 O.3       1 UNK        -0.5020 
     14 C14        -5.1793   -4.5856    4.1010 C.3       1 UNK         0.0871 
     15 C15        -6.4199   -4.8205    3.1961 C.3       1 UNK         0.1330 
     16 O16        -7.5894   -4.1600    3.6608 O.3       1 UNK        -0.6627 
     17 H17        -4.5393   -0.4880    5.8407 H         1 UNK         0.0691 
     18 H18        -5.2751   -0.0789    4.3158 H         1 UNK         0.0691 
     19 H19        -6.2998   -2.0976    4.2955 H         1 UNK         0.0706 
     20 H20        -5.5354   -2.5244    5.8026 H         1 UNK         0.0706 
     21 H21        -4.9473   -2.7200    2.0921 H         1 UNK         0.0706 
     22 H22        -3.4097   -3.5057    2.3397 H         1 UNK         0.0706 
     23 H23        -2.4131   -1.4781    2.3654 H         1 UNK         0.0691 
     24 H24        -3.9498   -0.6909    2.1638 H         1 UNK         0.0691 
     25 H25        -3.1515    1.1861    3.4138 H         1 UNK         0.0626 
     26 H26        -2.9273    1.0207    5.1334 H         1 UNK         0.0626 
     27 H27        -0.8713   -0.2726    3.3209 H         1 UNK         0.0883 
     28 H28        -0.8289    1.4401    3.5986 H         1 UNK         0.0883 
     29 H29        -0.3640    1.1088    6.0041 H         1 UNK         0.1467 
     30 H30         0.6880    0.0384    5.1081 H         1 UNK         0.1467 
     31 H31        -2.1820   -1.7878    4.7834 H         1 UNK         0.3980 
     32 H32        -5.3377   -4.9958    5.1003 H         1 UNK         0.0752 
     33 H33        -4.4095   -5.2577    3.7163 H         1 UNK         0.0752 
     34 H34        -6.2140   -4.5557    2.1582 H         1 UNK         0.0513 
     35 H35        -6.6304   -5.8913    3.1718 H         1 UNK         0.0513 
     36 H36        -8.3197   -4.3833    3.0631 H         1 UNK         0.4242 
@<TRIPOS>BOND
     1    1    2 1    
     2    1    6 1    
     3    1   17 1    
     4    1   18 1    
     5    2    3 1    
     6    2   19 1    
     7    2   20 1    
     8    3    4 1    
     9    3   14 1    
    10    4    5 1    
    11    4   21 1    
    12    4   22 1    
    13    5    6 1    
    14    5   23 1    
    15    5   24 1    
    16    6    7 1    
    17    7    8 1    
    18    7   25 1    
    19    7   26 1    
    20    8    9 1    
    21    8   27 1    
    22    8   28 1    
    23    9   10 1    
    24    9   29 1    
    25    9   30 1    
    26   10   11 2    
    27   10   12 2    
    28   10   13 1    
    29   13   31 1    
    30   14   15 1    
    31   14   32 1    
    32   14   33 1    
    33   15   16 1    
    34   15   34 1    
    35   15   35 1    
    36   16   36 1    
@<TRIPOS>SUBSTRUCTURE
     1 UNK         1 GROUP             0       ****    0 ROOT    
