
     RDKit          3D

  0  0  0  0  0  0  0  0  0  0999 V3000
M  V30 BEGIN CTAB
M  V30 COUNTS 78 79 0 0 0
M  V30 BEGIN ATOM
M  V30 1 C -3.7628 -1.81329 3.191 0
M  V30 2 C -2.92031 -0.737009 2.48748 0 CFG=1
M  V30 3 C -1.41788 -0.957502 2.81915 0
M  V30 4 C -0.530579 0.301234 2.62423 0 CFG=2
M  V30 5 C 0.94969 -0.0503445 2.31676 0
M  V30 6 C 1.67367 -0.95249 3.36881 0 CFG=1
M  V30 7 C 2.63653 -1.97012 2.69172 0 CFG=2
M  V30 8 C 1.8987 -2.88474 1.71926 0
M  V30 9 C 2.09993 -2.87396 0.388254 0
M  V30 10 C 3.17834 -2.1126 -0.274637 0
M  V30 11 C 3.07662 -1.5473 -1.48423 0
M  V30 12 C 1.80798 -1.4421 -2.30289 0
M  V30 13 C 1.27962 0.00307901 -2.41982 0 CFG=2
M  V30 14 O 0.10866 -0.0191396 -3.24601 0
M  V30 15 C -1.19764 0.321316 -2.85989 0
M  V30 16 O -2.08038 0.370467 -3.75675 0
M  V30 17 C -1.56196 0.656629 -1.43079 0
M  V30 18 C -3.09299 0.647565 -1.18286 0 CFG=1
M  V30 19 C -3.43527 0.636202 0.33467 0 CFG=2
M  V30 20 C -3.19378 -0.770273 0.953457 0
M  V30 21 C -4.89804 1.0565 0.578202 0
M  V30 22 O -3.64071 1.79708 -1.78577 0
M  V30 23 C 2.30921 1.01279 -3.01017 0 CFG=2
M  V30 24 C 1.79497 2.44947 -2.92276 0
M  V30 25 C 2.53333 3.22682 -4.00532 0
M  V30 26 C 3.07002 2.20344 -5.00366 0
M  V30 27 C 2.63472 0.821541 -4.50094 0 CFG=1
M  V30 28 C 3.69324 -0.220608 -4.75213 0
M  V30 29 O 4.8389 -0.107277 -4.23732 0
M  V30 30 O 3.40551 -1.31055 -5.56731 0
M  V30 31 C 0.891951 -3.77244 2.24733 0
M  V30 32 N 0.0834711 -4.48365 2.67003 0
M  V30 33 O 3.25482 -2.75726 3.67742 0
M  V30 34 C 2.45959 -0.0859341 4.36941 0
M  V30 35 C -0.666816 1.2748 3.80584 0
M  V30 36 H -3.61177 -1.76876 4.29038 0
M  V30 37 H -4.84353 -1.64486 2.99383 0
M  V30 38 H -3.48085 -2.82661 2.82998 0
M  V30 39 H -3.24502 0.236085 2.91499 0
M  V30 40 H -1.32145 -1.29246 3.87532 0
M  V30 41 H -1.03294 -1.79332 2.19853 0
M  V30 42 H -0.880108 0.844515 1.72489 0
M  V30 43 H 1.52533 0.889422 2.15961 0
M  V30 44 H 0.950881 -0.532145 1.31725 0
M  V30 45 H 0.933517 -1.53256 3.95601 0
M  V30 46 H 3.42023 -1.37169 2.18205 0
M  V30 47 H 1.4751 -3.50299 -0.235552 0
M  V30 48 H 4.14124 -2.06113 0.216462 0
M  V30 49 H 3.97386 -1.10126 -1.89437 0
M  V30 50 H 2.0001 -1.85302 -3.31515 0
M  V30 51 H 0.993926 -2.05903 -1.87424 0
M  V30 52 H 1.03928 0.348649 -1.39232 0
M  V30 53 H -1.06264 -0.0779894 -0.769596 0
M  V30 54 H -1.15454 1.66172 -1.18217 0
M  V30 55 H -3.52502 -0.281341 -1.63408 0
M  V30 56 H -2.80237 1.39691 0.838346 0
M  V30 57 H -2.36695 -1.30139 0.442006 0
M  V30 58 H -4.08366 -1.40108 0.722972 0
M  V30 59 H -5.59412 0.421683 -0.0103877 0
M  V30 60 H -5.15988 0.961224 1.65324 0
M  V30 61 H -5.0487 2.11827 0.295937 0
M  V30 62 H -4.23537 1.49424 -2.52076 0
M  V30 63 H 3.24843 0.985355 -2.41656 0
M  V30 64 H 0.703086 2.49775 -3.12984 0
M  V30 65 H 1.98507 2.8825 -1.91698 0
M  V30 66 H 3.37675 3.79317 -3.55415 0
M  V30 67 H 1.84741 3.94538 -4.50538 0
M  V30 68 H 2.6578 2.39357 -6.01944 0
M  V30 69 H 4.17901 2.29338 -5.06071 0
M  V30 70 H 1.71297 0.53467 -5.05486 0
M  V30 71 H 4.09685 -2.03298 -5.73939 0
M  V30 72 H 3.96008 -3.28806 3.22458 0
M  V30 73 H 3.27904 0.461624 3.85631 0
M  V30 74 H 1.80331 0.654218 4.86527 0
M  V30 75 H 2.90113 -0.718658 5.16675 0
M  V30 76 H 0.0522459 2.11447 3.70468 0
M  V30 77 H -0.492238 0.758331 4.77208 0
M  V30 78 H -1.68611 1.71311 3.82451 0
M  V30 END ATOM
M  V30 BEGIN BOND
M  V30 1 1 1 2
M  V30 2 1 2 3
M  V30 3 1 3 4
M  V30 4 1 4 5
M  V30 5 1 5 6
M  V30 6 1 6 7
M  V30 7 1 7 8
M  V30 8 2 8 9
M  V30 9 1 9 10
M  V30 10 2 10 11
M  V30 11 1 11 12
M  V30 12 1 12 13
M  V30 13 1 13 14
M  V30 14 1 14 15
M  V30 15 2 15 16
M  V30 16 1 15 17
M  V30 17 1 17 18
M  V30 18 1 18 19
M  V30 19 1 19 20
M  V30 20 1 19 21
M  V30 21 1 18 22
M  V30 22 1 13 23
M  V30 23 1 23 24
M  V30 24 1 24 25
M  V30 25 1 25 26
M  V30 26 1 26 27
M  V30 27 1 27 28
M  V30 28 2 28 29
M  V30 29 1 28 30
M  V30 30 1 8 31
M  V30 31 3 31 32
M  V30 32 1 7 33
M  V30 33 1 6 34
M  V30 34 1 4 35
M  V30 35 1 20 2
M  V30 36 1 27 23
M  V30 37 1 1 36
M  V30 38 1 1 37
M  V30 39 1 1 38
M  V30 40 1 2 39 CFG=1
M  V30 41 1 3 40
M  V30 42 1 3 41
M  V30 43 1 4 42 CFG=3
M  V30 44 1 5 43
M  V30 45 1 5 44
M  V30 46 1 6 45 CFG=1
M  V30 47 1 7 46 CFG=3
M  V30 48 1 9 47
M  V30 49 1 10 48
M  V30 50 1 11 49
M  V30 51 1 12 50
M  V30 52 1 12 51
M  V30 53 1 13 52 CFG=1
M  V30 54 1 17 53
M  V30 55 1 17 54
M  V30 56 1 18 55 CFG=3
M  V30 57 1 19 56 CFG=1
M  V30 58 1 20 57
M  V30 59 1 20 58
M  V30 60 1 21 59
M  V30 61 1 21 60
M  V30 62 1 21 61
M  V30 63 1 22 62
M  V30 64 1 23 63 CFG=1
M  V30 65 1 24 64
M  V30 66 1 24 65
M  V30 67 1 25 66
M  V30 68 1 25 67
M  V30 69 1 26 68
M  V30 70 1 26 69
M  V30 71 1 27 70 CFG=3
M  V30 72 1 30 71
M  V30 73 1 33 72
M  V30 74 1 34 73
M  V30 75 1 34 74
M  V30 76 1 34 75
M  V30 77 1 35 76
M  V30 78 1 35 77
M  V30 79 1 35 78
M  V30 END BOND
M  V30 END CTAB
M  END
$$$$
