
     RDKit          3D

  0  0  0  0  0  0  0  0  0  0999 V3000
M  V30 BEGIN CTAB
M  V30 COUNTS 39 38 0 0 0
M  V30 BEGIN ATOM
M  V30 1 C -0.975861 0.900244 -0.0971947 0
M  V30 2 C -2.29194 0.381518 0.518677 0
M  V30 3 N -2.10617 -0.988945 1.02725 0
M  V30 4 C -1.15429 -0.989792 2.15867 0
M  V30 5 C 0.0563428 -0.0641875 1.90033 0
M  V30 6 N 0.229 0.243594 0.466834 0
M  V30 7 C 0.659558 -0.937953 -0.317264 0
M  V30 8 C 1.60878 -0.51972 -1.4467 0
M  V30 9 C 2.90915 0.0796174 -0.901761 0
M  V30 10 S 4.00918 0.521078 -2.23666 0
M  V30 11 O 4.39015 -0.714369 -3.00281 0
M  V30 12 O 5.2506 1.1553 -1.6756 0
M  V30 13 O 3.24864 1.60322 -3.27474 0
M  V30 14 C -3.39219 -1.61851 1.40228 0
M  V30 15 C -3.88519 -2.52619 0.275632 0
M  V30 16 O -4.23502 -1.76686 -0.847305 0
M  V30 17 O 1.58281 -2.09498 -1.19787 0
M  V30 18 H -0.902168 1.99348 0.0868688 0
M  V30 19 H -1.01446 0.777516 -1.20226 0
M  V30 20 H -3.08261 0.411303 -0.261348 0
M  V30 21 H -2.61124 1.05808 1.34481 0
M  V30 22 H -0.782563 -2.02709 2.30708 0
M  V30 23 H -1.65606 -0.667122 3.09983 0
M  V30 24 H -0.0932953 0.890618 2.45176 0
M  V30 25 H 0.983793 -0.515603 2.3167 0
M  V30 26 H 1.19325 -1.67764 0.321689 0
M  V30 27 H -0.213504 -1.4709 -0.756202 0
M  V30 28 H 1.84818 -1.41849 -2.05551 0
M  V30 29 H 1.10552 0.216288 -2.1092 0
M  V30 30 H 3.42155 -0.656544 -0.246019 0
M  V30 31 H 2.68995 0.993479 -0.309756 0
M  V30 32 H 2.9916 2.36914 -2.70154 0
M  V30 33 H -4.17079 -0.86096 1.64927 0
M  V30 34 H -3.27811 -2.26294 2.30416 0
M  V30 35 H -3.08478 -3.25294 0.00957298 0
M  V30 36 H -4.77525 -3.0917 0.631358 0
M  V30 37 H -4.52669 -2.41629 -1.53863 0
M  V30 38 H 0.794458 -2.68082 -1.32388 0
M  V30 39 H 1.41784 -1.6393 -0.334306 0
M  V30 END ATOM
M  V30 BEGIN BOND
M  V30 1 1 1 2
M  V30 2 1 2 3
M  V30 3 1 3 4
M  V30 4 1 4 5
M  V30 5 1 5 6
M  V30 6 1 6 7
M  V30 7 1 7 8
M  V30 8 1 8 9
M  V30 9 1 9 10
M  V30 10 2 10 11
M  V30 11 2 10 12
M  V30 12 1 10 13
M  V30 13 1 3 14
M  V30 14 1 14 15
M  V30 15 1 15 16
M  V30 16 1 6 1
M  V30 17 1 1 18
M  V30 18 1 1 19
M  V30 19 1 2 20
M  V30 20 1 2 21
M  V30 21 1 4 22
M  V30 22 1 4 23
M  V30 23 1 5 24
M  V30 24 1 5 25
M  V30 25 1 7 26
M  V30 26 1 7 27
M  V30 27 1 8 28
M  V30 28 1 8 29
M  V30 29 1 9 30
M  V30 30 1 9 31
M  V30 31 1 13 32
M  V30 32 1 14 33
M  V30 33 1 14 34
M  V30 34 1 15 35
M  V30 35 1 15 36
M  V30 36 1 16 37
M  V30 37 1 17 38
M  V30 38 1 17 39
M  V30 END BOND
M  V30 END CTAB
M  END
$$$$
