AAT BioquestÂ®, Inc. 2025
Actelion Java MolfileCreator 1.0

 26 28  0  0  1  0  0  0  0  0999 V2000
    2.6251   -0.7578   -0.0000 C   0  0  0  0  0  0  0  0  0  0  0  0
    1.3126   -0.0000   -0.0000 C   0  0  0  0  0  0  0  0  0  0  0  0
    0.0000   -0.7578   -0.0000 C   0  0  0  0  0  0  0  0  0  0  0  0
   -1.3126    0.0000   -0.0000 C   0  0  0  0  0  0  0  0  0  0  0  0
   -2.6251   -0.7578   -0.0000 C   0  0  0  0  0  0  0  0  0  0  0  0
   -2.6251   -2.2734   -0.0000 C   0  0  0  0  0  0  0  0  0  0  0  0
   -3.9377   -3.0313   -0.0000 C   0  0  0  0  0  0  0  0  0  0  0  0
   -5.2503   -2.2734   -0.0000 C   0  0  0  0  0  0  0  0  0  0  0  0
   -6.5628   -3.0313   -0.0000 C   0  0  0  0  0  0  0  0  0  0  0  0
   -7.8754   -2.2734   -0.0000 C   0  0  0  0  0  0  0  0  0  0  0  0
   -7.8754   -0.7578   -0.0000 C   0  0  0  0  0  0  0  0  0  0  0  0
   -9.2863   -0.2041   -0.0000 C   0  0  0  0  0  0  0  0  0  0  0  0
   -9.7330    1.2442   -0.0000 C   0  0  0  0  0  0  0  0  0  0  0  0
   -8.8792    2.4965   -0.0000 C   0  0  0  0  0  0  0  0  0  0  0  0
   -7.3678    2.6097   -0.0000 C   0  0  0  0  0  0  0  0  0  0  0  0
   -6.8141    4.0206   -0.0000 O   0  0  0  0  0  0  0  0  0  0  0  0
   -6.3370    1.4987   -0.0000 O   0  0  0  0  0  0  0  0  0  0  0  0
   -6.5628    0.0000   -0.0000 C   0  0  0  0  0  0  0  0  0  0  0  0
   -5.3567   -0.6006   -0.0000 C   0  0  0  0  0  0  0  0  0  0  0  0
   -3.9377    0.0000   -0.0000 C   0  0  0  0  0  0  0  0  0  0  0  0
   -3.9377    1.5156   -0.0000 C   0  0  0  0  0  0  0  0  0  0  0  0
  -11.2317    1.4701   -0.0000 O   0  0  0  0  0  0  0  0  0  0  0  0
   -5.0382   -1.0709   -0.0000 C   0  0  0  0  0  0  0  0  0  0  0  0
   -1.3126   -3.0313   -0.0000 C   0  0  0  0  0  0  0  0  0  0  0  0
   -1.3126   -4.5469   -0.0000 O   0  0  0  0  0  0  0  0  0  0  0  0
   -0.0000   -2.2734   -0.0000 O   0  0  0  0  0  0  0  0  0  0  0  0
  1  2  1  0  0  0  0
  3  2  1  6  0  0  0
  3  4  1  0  0  0  0
  5  4  1  1  0  0  0
  5  6  1  0  0  0  0
  6  7  1  6  0  0  0
  7  8  2  3  0  0  0
  8  9  1  0  0  0  0
  9 10  2  3  0  0  0
 11 10  1  6  0  0  0
 11 12  1  0  0  0  0
 12 13  1  0  0  0  0
 13 14  1  0  0  0  0
 14 15  1  0  0  0  0
 15 16  2  0  0  0  0
 15 17  1  0  0  0  0
 18 17  1  1  0  0  0
 11 18  1  0  0  0  0
 18 19  1  0  0  0  0
 19 20  2  3  0  0  0
  5 20  1  0  0  0  0
 20 21  1  0  0  0  0
 13 22  1  6  0  0  0
  8 23  1  0  0  0  0
  6 24  1  0  0  0  0
 24 25  2  0  0  0  0
 24 26  1  0  0  0  0
  3 26  1  0  0  0  0
M  END
