
     RDKit          3D

  0  0  0  0  0  0  0  0  0  0999 V3000
M  V30 BEGIN CTAB
M  V30 COUNTS 56 58 0 0 0
M  V30 BEGIN ATOM
M  V30 1 C -3.86512 -0.875941 2.60862 0
M  V30 2 C -2.76284 -1.34071 3.56067 0
M  V30 3 N -2.4111 -2.75843 3.31391 0
M  V30 4 C -3.38232 -3.66955 3.96429 0
M  V30 5 C -3.3462 -5.05409 3.32084 0
M  V30 6 C -1.01524 -3.05796 3.73143 0
M  V30 7 C -0.195059 -3.52779 2.52584 0
M  V30 8 N 0.00625248 -2.45023 1.55695 0
M  V30 9 C 0.745945 -2.66517 0.347557 0
M  V30 10 O 1.33882 -3.76236 0.161149 0
M  V30 11 C 0.84699 -1.60403 -0.675556 0
M  V30 12 C -0.144145 -0.711076 -1.07039 0
M  V30 13 N 0.310653 0.0777752 -2.06296 0
M  V30 14 C 1.58235 -0.290775 -2.31247 0
M  V30 15 C 1.94457 -1.3426 -1.48642 0
M  V30 16 C 3.24774 -2.08415 -1.50344 0
M  V30 17 C 2.38723 0.244256 -3.42196 0
M  V30 18 C 2.49683 1.54769 -3.71611 0
M  V30 19 C 2.06446 2.74544 -2.97151 0
M  V30 20 C 2.34601 3.85545 -3.75463 0
M  V30 21 C 2.10867 5.15099 -3.29823 0
M  V30 22 C 1.58475 5.31828 -2.00752 0
M  V30 23 C 1.3418 4.19937 -1.18742 0
M  V30 24 C 1.60254 2.90179 -1.65833 0
M  V30 25 F 0.878833 4.37692 0.0744489 0
M  V30 26 N 2.97224 3.50843 -4.98355 0
M  V30 27 C 3.09017 2.0912 -4.94113 0
M  V30 28 O 3.62818 1.4124 -5.8555 0
M  V30 29 C -1.54137 -0.627312 -0.539912 0
M  V30 30 H -3.61801 -1.16366 1.56593 0
M  V30 31 H -4.84601 -1.31327 2.88377 0
M  V30 32 H -3.95854 0.229478 2.65951 0
M  V30 33 H -3.07593 -1.18122 4.61715 0
M  V30 34 H -1.89148 -0.676585 3.36845 0
M  V30 35 H -3.18988 -3.74995 5.05811 0
M  V30 36 H -4.42 -3.29301 3.84875 0
M  V30 37 H -2.37555 -5.55528 3.51404 0
M  V30 38 H -3.50304 -4.9679 2.22474 0
M  V30 39 H -4.1539 -5.68439 3.74902 0
M  V30 40 H -0.504593 -2.18511 4.19698 0
M  V30 41 H -0.970304 -3.85918 4.5029 0
M  V30 42 H -0.713931 -4.37704 2.03144 0
M  V30 43 H 0.795303 -3.88502 2.88257 0
M  V30 44 H -0.329656 -1.48699 1.77538 0
M  V30 45 H -0.23743 0.804702 -2.57562 0
M  V30 46 H 3.55995 -2.32968 -0.46693 0
M  V30 47 H 3.13266 -3.02157 -2.08602 0
M  V30 48 H 4.04532 -1.46495 -1.96437 0
M  V30 49 H 2.87635 -0.475662 -4.06631 0
M  V30 50 H 2.33858 6.00834 -3.91745 0
M  V30 51 H 1.39202 6.31439 -1.6318 0
M  V30 52 H 1.47685 2.06132 -0.993477 0
M  V30 53 H 3.32571 4.15378 -5.72389 0
M  V30 54 H -1.92236 -1.64076 -0.295158 0
M  V30 55 H -2.21201 -0.178719 -1.30242 0
M  V30 56 H -1.5577 0.011279 0.367403 0
M  V30 END ATOM
M  V30 BEGIN BOND
M  V30 1 1 1 2
M  V30 2 1 2 3
M  V30 3 1 3 4
M  V30 4 1 4 5
M  V30 5 1 3 6
M  V30 6 1 6 7
M  V30 7 1 7 8
M  V30 8 1 8 9
M  V30 9 2 9 10
M  V30 10 1 9 11
M  V30 11 2 11 12
M  V30 12 1 12 13
M  V30 13 1 13 14
M  V30 14 2 14 15
M  V30 15 1 15 16
M  V30 16 1 14 17
M  V30 17 2 17 18
M  V30 18 1 18 19
M  V30 19 1 19 20
M  V30 20 2 20 21
M  V30 21 1 21 22
M  V30 22 2 22 23
M  V30 23 1 23 24
M  V30 24 1 23 25
M  V30 25 1 20 26
M  V30 26 1 26 27
M  V30 27 2 27 28
M  V30 28 1 12 29
M  V30 29 1 15 11
M  V30 30 1 18 27
M  V30 31 2 24 19
M  V30 32 1 1 30
M  V30 33 1 1 31
M  V30 34 1 1 32
M  V30 35 1 2 33
M  V30 36 1 2 34
M  V30 37 1 4 35
M  V30 38 1 4 36
M  V30 39 1 5 37
M  V30 40 1 5 38
M  V30 41 1 5 39
M  V30 42 1 6 40
M  V30 43 1 6 41
M  V30 44 1 7 42
M  V30 45 1 7 43
M  V30 46 1 8 44
M  V30 47 1 13 45
M  V30 48 1 16 46
M  V30 49 1 16 47
M  V30 50 1 16 48
M  V30 51 1 17 49
M  V30 52 1 21 50
M  V30 53 1 22 51
M  V30 54 1 24 52
M  V30 55 1 26 53
M  V30 56 1 29 54
M  V30 57 1 29 55
M  V30 58 1 29 56
M  V30 END BOND
M  V30 END CTAB
M  END
$$$$
