AAT BioquestÂ®, Inc. 2025
Actelion Java MolfileCreator 1.0

 32 37  0  0  0  0  0  0  0  0999 V2000
    7.3987    0.1226   -0.0000 Br  0  0  0  0  0  0  0  0  0  0  0  0
    6.4042    0.0181   -0.0000 C   0  0  0  0  0  0  0  0  0  0  0  0
    5.8164    0.8271   -0.0000 C   0  0  0  0  0  0  0  0  0  0  0  0
    6.2232    1.7406   -0.0000 Br  0  0  0  0  0  0  0  0  0  0  0  0
    4.8219    0.7226   -0.0000 C   0  0  0  0  0  0  0  0  0  0  0  0
    4.4152   -0.1910   -0.0000 C   0  0  0  0  0  0  0  0  0  0  0  0
    3.4641   -0.5000   -0.0000 N   0  0  0  0  0  0  0  0  0  0  0  0
    2.5981    0.0000   -0.0000 C   0  0  0  0  0  0  0  0  0  0  0  0
    2.5981    1.0000   -0.0000 C   0  0  0  0  0  0  0  0  0  0  0  0
    3.4641    1.5000   -0.0000 C   0  0  0  0  0  0  0  0  0  0  0  0
    3.4641    2.5000   -0.0000 C   0  0  0  0  0  0  0  0  0  0  0  0
    2.5981    3.0000   -0.0000 C   0  0  0  0  0  0  0  0  0  0  0  0
    1.7321    2.5000   -0.0000 C   0  0  0  0  0  0  0  0  0  0  0  0
    1.7321    1.5000   -0.0000 C   0  0  0  0  0  0  0  0  0  0  0  0
    1.7321   -0.5000   -0.0000 C   0  0  0  0  0  0  0  0  0  0  0  0
    0.8660   -0.0000   -0.0000 C   0  0  0  0  0  0  0  0  0  0  0  0
    0.0000   -0.5000   -0.0000 C   0  0  0  0  0  0  0  0  0  0  0  0
   -0.8660    0.0000   -0.0000 C   0  0  0  0  0  0  0  0  0  0  0  0
   -1.7321   -0.5000   -0.0000 C   0  0  0  0  0  0  0  0  0  0  0  0
   -1.7321   -1.5000   -0.0000 C   0  0  0  0  0  0  0  0  0  0  0  0
   -2.5981   -2.0000   -0.0000 Cl  0  0  0  0  0  0  0  0  0  0  0  0
   -0.8660   -2.0000   -0.0000 C   0  0  0  0  0  0  0  0  0  0  0  0
   -0.0000   -1.5000   -0.0000 C   0  0  0  0  0  0  0  0  0  0  0  0
    1.7321   -1.5000   -0.0000 N   0  0  0  0  0  0  0  0  0  0  0  0
    2.5981   -2.0000   -0.0000 C   0  0  0  0  0  0  0  0  0  0  0  0
    2.3902   -2.9781   -0.0000 C   0  0  0  0  0  0  0  0  0  0  0  0
    1.3956   -3.0827   -0.0000 C   0  0  0  0  0  0  0  0  0  0  0  0
    0.9889   -2.1691   -0.0000 C   0  0  0  0  0  0  0  0  0  0  0  0
    3.4641   -1.5000   -0.0000 C   0  0  0  0  0  0  0  0  0  0  0  0
    4.4152   -1.8090   -0.0000 N   0  0  0  0  0  0  0  0  0  0  0  0
    5.0029   -1.0000   -0.0000 C   0  0  0  0  0  0  0  0  0  0  0  0
    5.9975   -0.8955   -0.0000 C   0  0  0  0  0  0  0  0  0  0  0  0
  1  2  1  0  0  0  0
  2  3  2  0  0  0  0
  3  4  1  0  0  0  0
  3  5  1  0  0  0  0
  5  6  2  0  0  0  0
  6  7  1  0  0  0  0
  7  8  1  0  0  0  0
  8  9  1  0  0  0  0
  9 10  2  0  0  0  0
 10 11  1  0  0  0  0
 11 12  2  0  0  0  0
 12 13  1  0  0  0  0
 13 14  2  0  0  0  0
  9 14  1  0  0  0  0
  8 15  2  0  0  0  0
 15 16  1  0  0  0  0
 16 17  1  0  0  0  0
 17 18  2  0  0  0  0
 18 19  1  0  0  0  0
 19 20  2  0  0  0  0
 20 21  1  0  0  0  0
 20 22  1  0  0  0  0
 22 23  2  0  0  0  0
 17 23  1  0  0  0  0
 15 24  1  0  0  0  0
 24 25  1  0  0  0  0
 25 26  2  0  0  0  0
 26 27  1  0  0  0  0
 27 28  2  0  0  0  0
 24 28  1  0  0  0  0
  7 29  1  0  0  0  0
 25 29  1  0  0  0  0
 29 30  2  0  0  0  0
  6 31  1  0  0  0  0
 30 31  1  0  0  0  0
 31 32  2  0  0  0  0
  2 32  1  0  0  0  0
M  END
